[TITLE]


[JUNCTIONS]
;ID              	Elev        	Demand      	Pattern         
 J_1             	827.8779    	3.455       	11              	;
 J_10            	702.9915    	0.222       	11              	;
 J_100           	715.8031    	3.131       	11              	;
 J_101           	707.8074    	1.68        	11              	;
 J_102           	713.6502    	1.053       	11              	;
 J_103           	722.426     	3.207       	11              	;
 J_104           	755.264     	2.284       	11              	;
 J_105           	811.7897    	1.034       	11              	;
 J_106           	668.2       	25.107      	11              	;
 J_107           	819.5187    	4.022       	11              	;
 J_108           	717.9304    	1.22        	11              	;
 J_109           	719.8839    	2.069       	11              	;
 J_11            	833.084     	4.644       	11              	;
 J_110           	757.6441    	4.541       	11              	;
 J_111           	815.9564    	3.753       	11              	;
 J_112           	713.8528    	0.892       	11              	;
 J_113           	826.1265    	1.965       	11              	;
 J_114           	790.607     	1.079       	11              	;
 J_115           	712.8643    	1.348       	11              	;
 J_116           	719.9912    	5.249       	11              	;
 J_117           	824.8449    	8.884       	11              	;
 J_118           	836.1444    	7.611       	11              	;
 J_119           	822.9587    	2.046       	11              	;
 J_12            	864.2354    	3.173       	11              	;
 J_120           	820.0375    	1.499       	11              	;
 J_121           	735.2062    	2.399       	11              	;
 J_122           	737.2734    	0.282       	11              	;
 J_123           	826.4803    	2.626       	11              	;
 J_124           	830.7352    	0.354       	11              	;
 J_125           	713.6415    	2.441       	11              	;
 J_126           	860.0606    	1.603       	11              	;
 J_127           	823.2175    	2.324       	11              	;
 J_128           	809.1961    	0           	                	;
 J_129           	704.1454    	3.511       	11              	;
 J_13            	864.9341    	0.132       	11              	;
 J_130           	826.5341    	0.481       	11              	;
 J_131           	830.8855    	1.6         	11              	;
 J_132           	765.9084    	2.091       	11              	;
 J_133           	824.1836    	2.183       	11              	;
 J_134           	714.842     	0.155       	11              	;
 J_135           	728.0247    	4.458       	11              	;
 J_136           	799.6594    	2.999       	11              	;
 J_137           	722.3592    	2.586       	11              	;
 J_138           	805.1968    	1.244       	11              	;
 J_139           	809.0209    	1.665       	11              	;
 J_14            	843.1075    	1.627       	11              	;
 J_140           	785.9373    	3.741       	11              	;
 J_141           	733.0634    	2.053       	11              	;
 J_142           	770.0557    	1.005       	11              	;
 J_143           	866.152     	4.851       	11              	;
 J_144           	720.5813    	1.594       	11              	;
 J_145           	720.8011    	1.185       	11              	;
 J_146           	707.8231    	3.835       	11              	;
 J_147           	701.9896    	0.861       	11              	;
 J_148           	708.3099    	2.249       	11              	;
 J_149           	706.965     	1.433       	11              	;
 J_15            	779.5731    	1.839       	11              	;
 J_150           	726.3725    	0.629       	11              	;
 J_151           	816.2421    	0.464       	11              	;
 J_152           	834.694     	0.986       	11              	;
 J_153           	730.9581    	1.477       	11              	;
 J_154           	814.5136    	0.941       	11              	;
 J_155           	824.9387    	0.871       	11              	;
 J_156           	738.991     	3.127       	11              	;
 J_157           	744.9891    	2.815       	11              	;
 J_158           	726.6152    	0.576       	11              	;
 J_159           	815.7682    	2.108       	11              	;
 J_16            	832.4956    	2.497       	11              	;
 J_160           	810.0319    	0.46        	11              	;
 J_161           	754.1252    	1.402       	11              	;
 J_162           	714.4454    	0.766       	11              	;
 J_163           	714.6489    	0.815       	11              	;
 J_164           	753.2233    	3.207       	11              	;
 J_165           	720.9912    	1.652       	11              	;
 J_166           	707.9638    	1.962       	11              	;
 J_167           	814.5156    	10.637      	11              	;
 J_168           	706.5472    	3.903       	11              	;
 J_169           	713.8094    	4.007       	11              	;
 J_17            	728.877     	1.958       	11              	;
 J_170           	818.0319    	2.05        	11              	;
 J_171           	812.5058    	0.063       	11              	;
 J_172           	817.4445    	1.982       	11              	;
 J_173           	805.6604    	0.391       	11              	;
 J_174           	828.6038    	5.243       	11              	;
 J_175           	710.8954    	0           	                	;
 J_176           	786.7114    	0.08        	11              	;
 J_177           	813.5297    	2.017       	11              	;
 J_178           	808.4128    	1.012       	11              	;
 J_179           	737.4337    	1.647       	11              	;
 J_18            	736.9755    	0.815       	11              	;
 J_180           	736.4892    	1.008       	11              	;
 J_181           	718.0353    	2.247       	11              	;
 J_182           	726.0893    	1.502       	11              	;
 J_183           	726.3998    	1.695       	11              	;
 J_184           	739.991     	2.715       	11              	;
 J_185           	739.9926    	2.003       	11              	;
 J_186           	742.3264    	5.535       	11              	;
 J_187           	732.9801    	3.444       	11              	;
 J_188           	731.3691    	5.531       	11              	;
 J_189           	732.8687    	1.445       	11              	;
 J_19            	699.1559    	2.28        	11              	;
 J_190           	732.9894    	2.043       	11              	;
 J_191           	836.9303    	1.846       	11              	;
 J_192           	810.2168    	0.797       	11              	;
 J_193           	797.5074    	3.887       	11              	;
 J_194           	822.8643    	2.38        	11              	;
 J_195           	750.2874    	1.906       	11              	;
 J_196           	736.9515    	2.72        	11              	;
 J_197           	796.9903    	3.023       	11              	;
 J_198           	719.0818    	0.732       	11              	;
 J_199           	720.9912    	0.964       	11              	;
 J_2             	817.4826    	2.321       	11              	;
 J_20            	744.9952    	2.494       	11              	;
 J_200           	729.9212    	2.478       	11              	;
 J_201           	728.1095    	2.213       	11              	;
 J_202           	732.9061    	1.661       	11              	;
 J_203           	814.1368    	1.704       	11              	;
 J_204           	799.201     	1.142       	11              	;
 J_205           	705.126     	3.711       	11              	;
 J_206           	724.3729    	3.592       	11              	;
 J_207           	821.977     	1.757       	11              	;
 J_208           	715.2576    	4.582       	11              	;
 J_209           	835.9903    	2.786       	11              	;
 J_21            	721.3914    	4.689       	11              	;
 J_210           	833.4019    	2.838       	11              	;
 J_211           	804.9415    	0.358       	11              	;
 J_212           	840.6462    	2.386       	11              	;
 J_213           	701.652     	1.374       	11              	;
 J_214           	746.681     	0           	                	;
 J_215           	754.5698    	0           	                	;
 J_216           	737.9505    	2.496       	11              	;
 J_217           	736.9823    	1.23        	11              	;
 J_218           	744.9054    	2.027       	11              	;
 J_219           	804.0792    	2.102       	11              	;
 J_22            	700.8202    	1.668       	11              	;
 J_220           	744.7317    	6.045       	11              	;
 J_221           	751.6641    	1.934       	11              	;
 J_222           	727.0811    	3.117       	11              	;
 J_223           	720.0023    	3.417       	11              	;
 J_224           	823.0417    	2.158       	11              	;
 J_225           	721.7761    	4.626       	11              	;
 J_226           	819.6412    	0.76        	11              	;
 J_227           	708.2795    	1.967       	11              	;
 J_228           	824.8619    	1.598       	11              	;
 J_229           	822.0541    	0.774       	11              	;
 J_23            	737.4351    	1.743       	11              	;
 J_230           	805.7729    	0.81        	11              	;
 J_231           	838.846     	0.924       	11              	;
 J_232           	855.6082    	0.92        	11              	;
 J_233           	780.1453    	2.948       	11              	;
 J_234           	765.9719    	3.201       	11              	;
 J_235           	743.5352    	2.984       	11              	;
 J_236           	700.555     	1.533       	11              	;
 J_237           	811.0247    	0.406       	11              	;
 J_238           	808.7514    	0.293       	11              	;
 J_239           	700.9506    	0.417       	11              	;
 J_24            	746.9418    	1.26        	11              	;
 J_240           	785.228     	1.026       	11              	;
 J_241           	786.9038    	0.636       	11              	;
 J_242           	776.8031    	4.326       	11              	;
 J_243           	822.3188    	3.338       	11              	;
 J_244           	716.7099    	2.716       	11              	;
 J_245           	726.5146    	1.212       	11              	;
 J_246           	726.0574    	0.309       	11              	;
 J_247           	715.7799    	1.253       	11              	;
 J_248           	721.5587    	0           	                	;
 J_249           	780.0825    	0.675       	11              	;
 J_25            	713.8174    	1.614       	11              	;
 J_250           	811.2813    	4.446       	11              	;
 J_251           	818.3541    	1.526       	11              	;
 J_252           	808.0032    	1.905       	11              	;
 J_253           	807.4651    	2.17        	11              	;
 J_254           	814.3533    	0.576       	11              	;
 J_255           	723.7567    	0.617       	11              	;
 J_256           	720.7368    	2.911       	11              	;
 J_257           	836.6774    	0.995       	11              	;
 J_258           	839.015     	0.168       	11              	;
 J_259           	762.0689    	0           	                	;
 J_26            	718.2416    	1.913       	11              	;
 J_260           	713.6141    	1.397       	11              	;
 J_261           	762.5952    	1.933       	11              	;
 J_262           	732.6038    	0.764       	11              	;
 J_263           	728.0023    	0.714       	11              	;
 J_264           	816.8181    	3.452       	11              	;
 J_265           	839.8957    	0.491       	11              	;
 J_266           	805.7429    	1.949       	11              	;
 J_267           	820.637     	0.64        	11              	;
 J_268           	732.8879    	0.717       	11              	;
 J_269           	703.685     	4.771       	11              	;
 J_27            	769.8668    	1.568       	11              	;
 J_270           	832.7582    	1.222       	11              	;
 J_271           	705.7073    	1.211       	11              	;
 J_272           	704.9918    	0.803       	11              	;
 J_273           	720.7579    	0.092       	11              	;
 J_274           	842.0897    	7.444       	11              	;
 J_275           	842.0897    	4.73        	11              	;
 J_276           	721.6353    	2.436       	11              	;
 J_277           	824.1943    	0.873       	11              	;
 J_278           	805.6969    	1.81        	11              	;
 J_279           	719.8173    	0.985       	11              	;
 J_28            	796.0566    	1.572       	11              	;
 J_280           	715.3461    	0.394       	11              	;
 J_281           	823.9942    	1.065       	11              	;
 J_282           	718.1614    	2.602       	11              	;
 J_283           	732.9999    	2.839       	11              	;
 J_284           	730.4833    	3.314       	11              	;
 J_285           	716.547     	0.54        	11              	;
 J_286           	722.9866    	1.485       	11              	;
 J_287           	712.3181    	1.884       	11              	;
 J_288           	701.1172    	2.9         	11              	;
 J_289           	834.6046    	0.283       	11              	;
 J_29            	827.0575    	3.927       	11              	;
 J_290           	700.7875    	1.03        	11              	;
 J_291           	799.9569    	0.863       	11              	;
 J_292           	703.2575    	0.846       	11              	;
 J_293           	802.7549    	0.688       	11              	;
 J_294           	737.6999    	0.047       	11              	;
 J_295           	738.3455    	3.427       	11              	;
 J_296           	727.7387    	1.216       	11              	;
 J_297           	703.2002    	0.644       	11              	;
 J_298           	822.7627    	0.213       	11              	;
 J_299           	799.6611    	0.348       	11              	;
 J_3             	700.2754    	1.716       	11              	;
 J_30            	854.2734    	2.258       	11              	;
 J_300           	797.2427    	2.294       	11              	;
 J_301           	803.6575    	0.307       	11              	;
 J_302           	707.9738    	0.666       	11              	;
 J_303           	790.3464    	1.007       	11              	;
 J_304           	731.165     	0.142       	11              	;
 J_305           	784.0937    	2.073       	11              	;
 J_306           	820.2689    	2.326       	11              	;
 J_307           	825.8171    	1.919       	11              	;
 J_308           	823.5433    	0.458       	11              	;
 J_309           	804.7012    	0           	                	;
 J_31            	873.9128    	2.199       	11              	;
 J_310           	733.6459    	2.156       	11              	;
 J_311           	730.9911    	1.095       	11              	;
 J_312           	767.064     	2.733       	11              	;
 J_313           	814.4392    	1.04        	11              	;
 J_314           	719.4011    	2.87        	11              	;
 J_315           	805.8253    	1.019       	11              	;
 J_316           	841.957     	0.346       	11              	;
 J_317           	823.7988    	4.795       	11              	;
 J_318           	703.9791    	0.6         	11              	;
 J_319           	703.5555    	0.94        	11              	;
 J_32            	828.63      	1.559       	11              	;
 J_320           	739.1719    	1.745       	11              	;
 J_321           	832.4639    	0.406       	11              	;
 J_322           	720.8818    	1.895       	11              	;
 J_323           	825.9904    	0.75        	11              	;
 J_324           	711.146     	0.509       	11              	;
 J_325           	720.8879    	0.942       	11              	;
 J_326           	806.7472    	0.44        	11              	;
 J_327           	740.3771    	0.659       	11              	;
 J_328           	736.9698    	0.87        	11              	;
 J_329           	840.3738    	2.623       	11              	;
 J_33            	825.3884    	0.637       	11              	;
 J_330           	828.5745    	0.047       	11              	;
 J_331           	705.0208    	0.154       	11              	;
 J_332           	819.8542    	0.479       	11              	;
 J_333           	721.1528    	0.073       	11              	;
 J_334           	841.3723    	0.206       	11              	;
 J_335           	771.0303    	3.765       	11              	;
 J_336           	702.7543    	2.058       	11              	;
 J_337           	703.5408    	0.949       	11              	;
 J_338           	809.1177    	0.659       	11              	;
 J_339           	723.1497    	0.808       	11              	;
 J_34            	722.9923    	1.466       	11              	;
 J_340           	798.1874    	0           	                	;
 J_341           	796.9903    	0           	                	;
 J_342           	797.4256    	32.845      	11              	;
 J_343           	796.9903    	0           	                	;
 J_344           	801.4435    	0           	                	;
 J_345           	852.9761    	0           	                	;
 J_346           	847.3617    	0           	                	;
 J_347           	858.7726    	0           	                	;
 J_348           	855.9377    	0           	                	;
 J_349           	856.9358    	0           	                	;
 J_35            	728.9066    	1.285       	11              	;
 J_350           	876.9603    	0           	                	;
 J_351           	880.3098    	0           	                	;
 J_352           	838.8246    	0           	                	;
 J_353           	842.1368    	0           	                	;
 J_354           	827.7694    	0           	                	;
 J_355           	837.6611    	0           	                	;
 J_356           	813.6871    	0           	                	;
 J_357           	720.4287    	0           	                	;
 J_358           	768.9846    	0           	                	;
 J_359           	706.9181    	0           	                	;
 J_36            	844.7623    	2.731       	11              	;
 J_360           	826.9007    	0           	                	;
 J_361           	825.3608    	0           	                	;
 J_362           	808.0666    	0           	                	;
 J_363           	808.0666    	0           	                	;
 J_364           	808.0745    	0           	                	;
 J_365           	807.926     	0           	                	;
 J_368           	776.3999    	0           	                	;
 J_37            	839.1771    	2.912       	11              	;
 J_38            	848.5386    	3.786       	11              	;
 J_39            	819.6777    	0.896       	11              	;
 J_4             	730.7019    	1.214       	11              	;
 J_40            	812.6572    	1.109       	11              	;
 J_41            	832.2995    	2.791       	11              	;
 J_42            	813.0446    	1.496       	11              	;
 J_43            	790.4752    	3.67        	11              	;
 J_44            	744.9852    	3.238       	11              	;
 J_45            	736.9534    	0.724       	11              	;
 J_46            	733.6626    	1.166       	11              	;
 J_47            	733.5811    	1.317       	11              	;
 J_48            	706.9192    	2.775       	11              	;
 J_49            	706.3199    	2.363       	11              	;
 J_5             	857.6451    	3.288       	11              	;
 J_50            	816.774     	12.789      	11              	;
 J_51            	824.017     	2.029       	11              	;
 J_52            	816.5573    	1.447       	11              	;
 J_53            	828.5898    	0.386       	11              	;
 J_54            	797.1282    	2.199       	11              	;
 J_55            	819.4822    	4.601       	11              	;
 J_56            	705.9534    	2.966       	11              	;
 J_57            	733.8567    	2.121       	11              	;
 J_58            	733.8913    	0.372       	11              	;
 J_59            	825.8442    	2.026       	11              	;
 J_6             	852.8474    	4.556       	11              	;
 J_60            	800.9773    	1.618       	11              	;
 J_61            	737.672     	3.054       	11              	;
 J_62            	774.041     	2.88        	11              	;
 J_63            	814.9747    	1.657       	11              	;
 J_64            	841.5665    	2.243       	11              	;
 J_65            	763.8414    	3.506       	11              	;
 J_66            	805.7772    	2.597       	11              	;
 J_67            	820.7919    	1.879       	11              	;
 J_68            	809.6011    	2.074       	11              	;
 J_69            	746.8533    	3.029       	11              	;
 J_7             	797.4635    	0           	                	;
 J_70            	702.0076    	1.44        	11              	;
 J_71            	701.9949    	1.719       	11              	;
 J_72            	724.7742    	2.306       	11              	;
 J_73            	723.6992    	2.379       	11              	;
 J_74            	714.8643    	1.041       	11              	;
 J_75            	714.8759    	1.395       	11              	;
 J_76            	725.5305    	1.067       	11              	;
 J_77            	825.7806    	2.404       	11              	;
 J_78            	741.114     	2.16        	11              	;
 J_79            	794.7784    	2.759       	11              	;
 J_8             	719.1134    	0           	                	;
 J_80            	771.4455    	0.665       	11              	;
 J_81            	762.999     	3.283       	11              	;
 J_82            	719.2533    	1.634       	11              	;
 J_83            	703.0839    	0.786       	11              	;
 J_84            	746.4581    	3.058       	11              	;
 J_85            	808.1998    	3.12        	11              	;
 J_86            	706.8516    	1.149       	11              	;
 J_87            	721.5556    	2.57        	11              	;
 J_88            	777.6839    	3.759       	11              	;
 J_89            	815.1093    	2.567       	11              	;
 J_9             	816.3134    	6.815       	11              	;
 J_90            	737.3759    	1.013       	11              	;
 J_91            	778.5873    	2.54        	11              	;
 J_92            	701.6766    	2.936       	11              	;
 J_93            	707.9979    	2.617       	11              	;
 J_94            	812.9183    	0.358       	11              	;
 J_95            	818.6368    	1.984       	11              	;
 J_96            	715.2853    	0.908       	11              	;
 J_97            	737.7603    	1.47        	11              	;
 J_98            	790.8746    	1.955       	11              	;
 J_99            	715.3276    	0.796       	11              	;
 I_Pump_1        	833.5672    	0           	                	;
 I_Pump_2        	668.1938    	0           	                	;
 I_Pump_3        	704.1453    	0           	                	;
 O_Pump_4        	821.5734    	0           	                	;
 O_Pump_5        	812.2026    	0           	                	;
 O_Pump_6        	703.1908    	0           	                	;
 O_Pump_1        	833.5672    	0           	                	;
 O_Pump_2        	668.1938    	0           	                	;
 O_Pump_3        	704.1453    	0           	                	;
 I_Pump_4        	821.5734    	0           	                	;
 I_Pump_6        	703.1908    	0           	                	;

[RESERVOIRS]
;ID              	Head        	Pattern         
 R_1             	720         	                	;
 R_2             	900         	                	;
 R_3             	760         	                	;
 WTP             	775         	                	;

[TANKS]
;ID              	Elevation   	InitLevel   	MinLevel    	MaxLevel    	Diameter    	MinVol      	VolCurve
 T_1             	839.0317    	100.9683    	86.96826    	105.9683    	66.93       	0           	                	;
 T_2             	847.2754    	99.72461    	82.72461    	102.7246    	92.48       	0           	                	;
 T_3             	806.7986    	127.2014    	115.2014    	134.2014    	51.84       	0           	                	;

[PIPES]
;ID              	Node1           	Node2           	Length      	Diameter    	Roughness   	MinorLoss   	Status
 P_1             	J_355           	J_307           	736.09      	6           	125.2512    	0           	Open  	;
 P_10            	J_356           	J_1             	652.9       	8           	56.5312     	0           	Open  	;
 P_100           	J_48            	J_96            	463.109     	8           	56.5312     	0           	Open  	;
 P_101           	J_146           	J_147           	623.609     	6           	56.5312     	0           	Open  	;
 P_102           	J_70            	J_148           	476.779     	4           	56.5312     	0           	Open  	;
 P_103           	J_149           	J_99            	463.209     	10          	56.5312     	0           	Open  	;
 P_104           	J_76            	J_150           	287.959     	6           	56.5312     	0           	Open  	;
 P_105           	J_151           	J_152           	697.729     	16          	56.5312     	0           	Open  	;
 P_106           	J_47            	J_153           	381.01      	12          	56.5312     	0           	Open  	;
 P_107           	J_154           	J_155           	417         	6           	61.485      	0           	Open  	;
 P_108           	J_156           	J_157           	237.66      	4           	139.1138    	0           	Open  	;
 P_109           	J_66            	J_89            	479.2       	8           	79.2806     	0           	Open  	;
 P_11            	J_17            	J_18            	447.85      	8           	56.5312     	0           	Open  	;
 P_110           	J_158           	J_150           	22.29       	10          	56.5312     	0           	Open  	;
 P_111           	J_159           	J_160           	479.69      	10          	59.8674     	0           	Open  	;
 P_112           	J_157           	J_161           	338.329     	2           	137.4006    	0           	Open  	;
 P_113           	J_162           	J_163           	30.149      	6           	56.5312     	0           	Open  	;
 P_114           	J_157           	J_164           	444.48      	4           	139.1138    	0           	Open  	;
 P_115           	J_88            	J_65            	474.97      	6           	56.5312     	0           	Open  	;
 P_116           	J_165           	J_166           	743.549     	6           	56.5312     	0           	Open  	;
 P_117           	J_167           	J_50            	5655.68     	6           	59.8674     	0           	Open  	;
 P_118           	J_168           	J_169           	727.19      	2           	56.5312     	0           	Open  	;
 P_119           	J_170           	J_171           	45.29       	6           	61.485      	0           	Open  	;
 P_12            	J_19            	J_20            	2050.36     	10          	79.2806     	0           	Open  	;
 P_120           	J_172           	J_173           	94.379      	2           	61.485      	0           	Open  	;
 P_121           	J_174           	T_1             	510.35      	10          	59.8674     	0           	Open  	;
 P_122           	J_170           	J_172           	173.169     	2           	61.485      	0           	Open  	;
 P_123           	J_136           	J_176           	96.8        	10          	79.2806     	0           	Open  	;
 P_124           	J_177           	J_178           	732.909     	6           	59.8674     	0           	Open  	;
 P_125           	J_46            	J_179           	456.079     	12          	56.5312     	0           	Open  	;
 P_126           	J_180           	J_181           	155.46      	10          	79.2806     	0           	Open  	;
 P_127           	J_182           	J_183           	468.47      	8           	56.5312     	0           	Open  	;
 P_128           	J_156           	J_184           	631.21      	6           	137.4006    	0           	Open  	;
 P_129           	J_179           	J_97            	18.549      	6           	56.5312     	0           	Open  	;
 P_13            	J_21            	J_359           	204.63      	4           	56.5312     	0           	Open  	;
 P_130           	J_115           	J_162           	78.819      	16          	97.3697     	0           	Open  	;
 P_131           	J_185           	J_186           	229.149     	6           	56.5312     	0           	Open  	;
 P_132           	J_187           	J_188           	1185.469    	4           	79.2806     	0           	Open  	;
 P_133           	J_107           	J_43            	414.529     	6           	59.8674     	0           	Open  	;
 P_134           	J_189           	J_190           	565.989     	10          	79.2806     	0           	Open  	;
 P_135           	J_32            	J_191           	256.059     	4           	56.5312     	0           	Open  	;
 P_136           	J_35            	J_45            	447.029     	10          	56.5312     	0           	Open  	;
 P_137           	J_192           	J_139           	910.549     	10          	59.8674     	0           	Open  	;
 P_138           	J_193           	J_194           	358.619     	4           	137.4006    	0           	Open  	;
 P_139           	J_195           	J_72            	1615.8      	8           	79.2806     	0           	Open  	;
 P_14            	J_23            	J_24            	748.729     	6           	56.5312     	0           	Open  	;
 P_140           	J_196           	J_340           	1798.75     	12          	96.1445     	0           	Open  	;