[TITLE]


[JUNCTIONS]
;ID              	Elev        	Demand      	Pattern
 J_CT3           	1.5         	0           	                	;
 J_CT6           	1.5         	0           	                	;
 J_CT5           	1.5         	1           	                	;
 J2a_15          	0.22        	0           	                	;
 J1_70           	1           	0           	                	;
 J1_40           	0.27        	0           	                	;
 J1_50           	0.27        	0           	                	;
 J1_51           	1           	0           	                	;
 J1_60           	0.27        	0           	                	;
 J1_61           	1           	0           	                	;
 J2c_12          	1.5         	0           	                	;
 J2c_14          	1.7         	0           	                	;
 Jb_53           	1.72        	0           	                	;
 J2c_11          	1.5         	0           	                	;
 J2c_13          	1.5         	0           	                	;
 J2a_20          	1.7         	0           	                	;
 J2a_30          	1.7         	0           	                	;
 J2a_33          	.22         	0           	                	;
 J2a_23          	.22         	0           	                	;
 J2a_41          	.22         	0           	                	;
 J_CT1           	1.5         	0           	                	;
 J_CT2           	1.5         	0           	                	;
 J1_11           	0.8         	0           	                	;
 J1_30           	0.96        	0           	                	;
 J2b_21          	1.3         	0           	                	;
 J2b_40          	0           	0           	                	;
 J2b_30          	0           	0           	                	;
 J2b_31          	0           	0           	                	;
 J2b_50          	1.3         	0           	                	;
 J2b_41          	0           	0           	                	;
 J2c_10          	1.5         	0           	                	;
 J_CT4           	1.5         	0           	                	;
 J2b_10          	0.8         	0           	                	;
 J1_10           	0.8         	0           	                	;
 J1_20           	0.96        	0           	                	;
 J2a_31          	1.7         	0           	                	;
 J2a_32          	.4          	0           	                	;
 J2a_21          	1.7         	0           	                	;
 J2a_22          	.4          	0           	                	;
 J1-CLin         	0.22        	0           	                	;
 J2a_40          	.22         	0           	                	;
 J1-MPA          	0.22        	0           	                	;
 J1_33           	.22         	0           	                	;
 J1_31           	0.22        	0           	                	;
 RWtank_Top      	2.37        	0           	                	;
 J1_34           	.27         	0           	                	;
 J2a_10          	0.3         	0           	                	;
 J2a_12          	0           	0           	                	;
 J2a_13          	0.22        	0           	                	;
 J2a_14          	0.22        	0           	                	;
 ER2_Top         	2.35        	0           	                	;
 ER1_Top         	2.35        	0           	                	;
 J2b_11          	.22         	0           	                	;
 J2b_12          	.92         	0           	                	;
 J2b_14          	.92         	0           	                	;
 J2b_Leak        	0.92        	0           	                	;
 J2b_15          	1.63        	0           	                	;
 J2b_20          	.22         	0           	                	;
 J2b_51          	0.22        	0           	                	;
 J2b_52          	.22         	0           	                	;
 J2a_11          	0.3         	0           	                	;
 J1_32           	0.22        	0           	                	;
 CT1_CV          	1.5         	0           	                	;
 CT2_CV          	1.5         	0           	                	;
 CT3_CV          	1.5         	0           	                	;
 CT4_CV          	1.5         	0           	                	;
 CT5_CV          	1.5         	0           	                	;
 CT6_CV          	1.5         	0           	                	;
 CT1_FV          	1.5         	0           	                	;
 CT2_FV          	1.5         	0           	                	;
 CT3_FV          	1.5         	0           	                	;
 CT4_FV          	1.5         	0           	                	;
 CT5_FV          	1.5         	0           	                	;
 CT6_FV          	1.5         	0           	                	;

[RESERVOIRS]
;ID              	Head        	Pattern
 SWaT            	10          	                	;
 PUB             	5           	                	;

[TANKS]
;ID              	Elevation   	InitLevel   	MinLevel    	MaxLevel    	Diameter    	MinVol      	VolCurve
 T1              	1.6         	0.3129975   	0           	0.5         	1.809       	0           	ERtanks         	;
 T2              	1.6         	0.2369489   	0           	0.5         	1.809       	0           	ERtanks         	;
 T0              	1.3         	0.4259549   	0           	1           	1.96        	0           	RAWtank         	;

[PIPES]
;ID              	Node1           	Node2           	Length      	Diameter    	Roughness   	MinorLoss   	Status
 p1_RWP1in       	J1_40           	J1_50           	0.75        	25.4        	140         	0           	Open  	;
 p1_RWP2in       	J1_40           	J1_60           	0.75        	25.4        	140         	0           	Open  	;
 p1_30           	J1_51           	J1_70           	0.8         	25.4        	140         	0           	CV    	;
 p1_40           	J1_61           	J1_70           	0.8         	25.4        	140         	0           	CV    	;
 p2c_CT3in       	J2c_14          	J_CT3           	1.37        	25.4        	140         	0           	Open  	;
 p2c_CT6in       	J2c_14          	J_CT6           	1.37        	25.4        	140         	0           	Open  	;
 p2c_CT5in       	J2c_12          	J_CT5           	1.37        	25.4        	140         	0           	Open  	;
 p2c_11          	J2c_11          	J2c_12          	.7          	50.8        	140         	0           	Open  	;
 p2c_20          	J2c_12          	J2c_13          	1           	50.8        	140         	0           	Open  	;
 p2c_21          	J2c_13          	J2c_14          	.7          	50.8        	140         	0           	Open  	;
 p2c_CT1in       	J2c_10          	J_CT1           	1.37        	25.4        	140         	0           	Open  	;
 p2c_CT2in       	J2c_12          	J_CT2           	1.37        	25.4        	140         	0           	Open  	;
 p2b_72          	J2c_14          	Jb_53           	0.6         	50.8        	140         	0           	Open  	;
 p1_swat_join    	J1_30           	J1_11           	1           	25.4        	140         	0           	Open  	;
 p2b_PB2in       	J2b_21          	J2b_40          	1.5         	50.8        	140         	0           	Open  	;
 p2b_PB1in       	J2b_21          	J2b_30          	1.5         	50.8        	140         	0           	Open  	;
 p2b_PB2out      	J2b_41          	J2b_50          	2.06        	50.8        	140         	0           	CV    	;
 p2a_10          	J1_70           	J2a_10          	.7          	25.4        	140         	0           	Open  	;
 p2c_10          	J2c_10          	J2c_11          	1           	50.8        	140         	0           	Open  	;
 p2c_CT4in       	J2c_10          	J_CT4           	1.37        	25.4        	140         	0           	Open  	;
 p2b_GF          	J2b_10          	J2b_11          	7.3         	50.8        	140         	0           	CV    	;
 p2b_71          	J2b_52          	Jb_53           	1           	50.8        	140         	0           	CV    	;
 p1_swat_in      	J1_10           	SWaT            	1           	25.4        	140         	0           	Open  	;
 p1_pub_in       	PUB             	J1_20           	1.83        	25.4        	140         	0           	Open  	;
 p2a_30          	J2a_20          	J2a_14          	2           	25.4        	140         	0           	Open  	;
 p2a_40          	J2a_15          	J2a_30          	2.2         	25.4        	140         	0           	Open  	;
 p2a_41          	J2a_31          	ER2_Top         	1.65        	25.4        	140         	0           	Open  	;
 p2a_31          	J2a_21          	ER1_Top         	0.1         	25.4        	140         	0           	Open  	;
 p2a_33          	T1              	J2a_22          	1.4         	50.8        	140         	0           	Open  	;
 p2a_43          	T2              	J2a_32          	1.4         	50.8        	140         	0           	Open  	;
 p2a_50          	J2a_23          	J2a_40          	1.38        	50.8        	140         	0           	Open  	;
 p2a_51          	J2a_40          	J2a_41          	1.15        	50.8        	140         	0           	Open  	;
 p1_12           	J1-CLin         	J1-MPA          	0.1         	25.4        	140         	0           	Open  	;
 p1_13           	J1-MPA          	J1_33           	1.1         	25.4        	140         	0           	Open  	;
 p1_14           	J1_33           	RWtank_Top      	3.5         	25.4        	140         	0           	Open  	;
 p1_10           	J1_30           	J1_31           	0.18        	25.4        	140         	0           	Open  	;
 p1_11           	J1_32           	J1-CLin         	3           	25.4        	140         	0           	Open  	;
 p1_RWTin        	RWtank_Top      	T0              	0.5         	25.4        	140         	0           	Open  	;
 p1_20           	T0              	J1_34           	2.6         	25.4        	140         	0           	Open  	;
 p1_21           	J1_34           	J1_40           	0.9         	25.4        	140         	0           	Open  	;
 p2_11           	J2a_11          	J2a_12          	3.3         	25.4        	140         	0           	Open  	;FIT002
 p2a_12          	J2a_12          	J2a_13          	9           	25.4        	140         	0           	Open  	;
 p2a_13          	J2a_13          	J2a_14          	2.3         	25.4        	140         	0           	Open  	;
 p2a_20          	J2a_14          	J2a_15          	0.6         	25.4        	140         	0           	Open  	;
 p2a_42          	ER2_Top         	T2              	.15         	25.4        	140         	0           	Open  	;
 p2a_32          	ER1_Top         	T1              	.15         	25.4        	140         	0           	Open  	;
 p2a_44          	J2a_33          	J2a_23          	1           	50.8        	140         	0           	Open  	;
 p2b_80          	J2b_11          	J2b_12          	.64         	50.8        	140         	0           	Open  	;
 p2b_81          	J2b_12          	J2b_Leak        	0.75        	50.8        	140         	0           	Open  	;
 p2b_82          	J2b_Leak        	J2b_14          	1.45        	50.8        	140         	0           	Open  	;
 p2b_83          	J2b_14          	J2b_15          	.77         	50.8        	140         	0           	Open  	;
 p2b_84          	J2b_15          	J2c_10          	1.7         	50.8        	140         	0           	Open  	;
 p2b_60          	J2b_20          	J2b_21          	3           	50.8        	140         	0           	Open  	;
 p2b_PB1out      	J2b_31          	J2b_50          	2.06        	50.8        	140         	0           	CV    	;
 p2b_70          	J2b_50          	J2b_51          	1.2         	50.8        	140         	0           	Open  	;
 p2b_BF          	J2b_51          	J2b_52          	2.5         	50.8        	140         	0           	Open  	;

[PUMPS]
;ID              	Node1           	Node2           	Parameters
 P_RAW1          	J1_50           	J1_51           	HEAD MXH204_33	;
 P_RAW2          	J1_60           	J1_61           	HEAD MXH204_33	;
 P_B2            	J2b_40          	J2b_41          	HEAD MXV25	;
 P_B1            	J2b_30          	J2b_31          	HEAD MXV25	;

[VALVES]
;ID              	Node1           	Node2           	Diameter    	Type	Setting     	MinorLoss
 V_Gi_G          	J2a_41          	J2b_10          	50.8        	FCV 	0           	0           	;
 V_Gi_B          	J2a_41          	J2b_20          	50.8        	FCV 	0           	0           	;
 V_SWaT          	J1_10           	J1_11           	25.4        	PRV 	0           	0           	;
 V_PUB           	J1_20           	J1_30           	25.4        	PRV 	0           	0           	;
 V_ER2i          	J2a_30          	J2a_31          	25.4        	TCV 	0           	0           	;
 V_ER2o          	J2a_32          	J2a_33          	12          	TCV 	0           	0           	;
 V_ER1i          	J2a_20          	J2a_21          	25.4        	TCV 	0           	0           	;
 V_ER1o          	J2a_22          	J2a_23          	12          	TCV 	0           	0           	;
 FCV_ER          	J2a_10          	J2a_11          	25.4        	FCV 	2.25        	0           	;
 FCV_RWin        	J1_31           	J1_32           	25.4        	FCV 	2.028394    	0           	;
 1               	J_CT1           	CT1_CV          	25.4        	PRV 	0           	0           	;
 2               	J_CT2           	CT2_CV          	25.4        	PRV 	0           	0           	;
 3               	J_CT3           	CT3_CV          	25.4        	PRV 	0           	0           	;
 4               	J_CT4           	CT4_CV          	25.4        	PRV 	0           	0           	;
 5               	J_CT5           	CT5_CV          	25.4        	PRV 	0           	0           	;
 6               	J_CT6           	CT6_CV          	25.4        	PRV 	0           	0           	;
 7               	CT1_CV          	CT1_FV          	25.4        	FCV 	0           	0           	;
 8               	CT2_CV          	CT2_FV          	25.4        	FCV 	0           	0           	;
 9               	CT3_CV          	CT3_FV          	25.4        	FCV 	0           	0           	;
 10              	CT4_CV          	CT4_FV          	25.4        	FCV 	0           	0           	;
 11              	CT5_CV          	CT5_FV          	25.4        	FCV 	0           	0           	;
 12              	CT6_CV          	CT6_FV          	25.4        	FCV 	0           	0           	;

[TAGS]
 NODE 	J2b_10          	.22
 NODE 	J2b_12          	pit002
 LINK 	p2b_72          	pit003
 LINK 	p2b_GF          	FIT002
 LINK 	p2a_50          	PIT001
 LINK 	p1_11           	FIT001
 LINK 	p2b_81          	leak
 LINK 	p2b_BF          	FIT003

[DEMANDS]
;Junction        	Demand      	Pattern         	Category

[STATUS]
;ID              	Status/Setting
 P_RAW2          	Closed
 P_B2            	Closed
 V_Gi_G          	Closed
 V_Gi_B          	Open
 V_SWaT          	Closed
 V_ER1i          	Closed
 V_ER1o          	Closed

[PATTERNS]
;ID              	Multipliers
;
 Consumer01      	0.156468439 	0.150734308 	0.145043314 	0.139382147 	0.145149189 	0.152539736
 Consumer01      	0.155286331 	0.150445253 	0.148256692 	0.146671903 	0.148505047 	0.146606944
 Consumer01      	0.149077194 	0.153322356 	0.153115506 	0.151977111 	0.146413894 	0.137909411
 Consumer01      	0.143410533 	0.149537467 	0.154959117 	0.1549545   	0.156135133 	0.156502575
 Consumer01      	0.145258292 	0.141603858 	0.147403625 	0.151445008 	0.149597044 	0.143256914
 Consumer01      	0.140559628 	0.140034925 	0.146100622 	0.15088645  	0.151198419 	0.148336086
 Consumer01      	0.142877864 	0.137663361 	0.138164694 	0.146684825 	0.150642569 	0.160054694
 Consumer01      	0.158135525 	0.145131072 	0.143500819 	0.146917633 	0.147086931 	0.147912347
 Consumer01      	0.150265244 	0.150095992 	0.149977908 	0.1499516   	0.150113064 	0.149956086
 Consumer01      	0.149947503 	0.149955311 	0.149789736 	0.149635039 	0.149681631 	0.143966994
 Consumer01      	0.136494806 	0.138310517 	0.143096369 	0.153378333 	0.149729744 	0.147864394
 Consumer01      	0.147986764 	0.148169011 	0.148317767 	0.151199283 	0.151630036 	0.151588578
 Consumer01      	0.146400039 	0.140199894 	0.142405125 	0.145517675 	0.145851486 	0.148605686
 Consumer01      	0.152280067 	0.157607403 	0.154771033 	0.150462183 	0.146254117 	0.142772914
 Consumer01      	0.142765758 	0.145339047 	0.149944714 	0.149938669 	0.148977528 	0.141621964
 Consumer01      	0.141781989 	0.1477325   	0.154255439 	0.153900931 	0.154293308 	0.150803042
 Consumer01      	0.141564894 	0.138988222 	0.145587147 	0.1466278   	0.147209739 	0.152093547
 Consumer01      	0.151987558 	0.151702522 	0.151697819 	0.148541825 	0.1450357   	0.141578767
 Consumer01      	0.141949942 	0.143200969 	0.151542556 	0.155227081 	0.155638872 	0.151184736
 Consumer01      	0.140396194 	0.141149581 	0.147262881 	0.148795742 	0.149717433 	0.150829353
 Consumer01      	0.144402322 	0.144783481 	0.148450617 	0.150784739 	0.150565872 	0.145547792
 Consumer01      	0.138293136 	0.135264869 	0.137682969 	0.146486794 	0.149475297 	0.153384772
 Consumer01      	0.1522735   	0.15018535  	0.145613197 	0.143269561 	0.140615989 	0.14697535
 Consumer01      	0.151356133 	0.149446878 	0.151144261 	0.146967617 	0.146786053 	0.145697989
 Consumer01      	0.139735128 	0.140446689 	0.143498322 	0.153368108 	0.158005942 	0.155280067
 Consumer01      	0.150572969 	0.149517878 	0.149023528 	0.148789133 	0.144656947 	0.142764683
 Consumer01      	0.145175022 	0.151380258 	0.150443475 	0.150447547 	0.148491622 	0.145955331
 Consumer01      	0.145756356 	0.145256989 	0.145151561 	0.146965161 	0.149951244 	0.149651042
 Consumer01      	0.149782433 	0.149956428 	0.14980855  	0.149745803 	0.149401875 	0.1484218
 Consumer01      	0.146442019 	0.146218428 	0.146284769 	0.145937236 	0.146478625 	0.146403756
 Consumer01      	0.143480306 	0.136703131 	0.134942433 	0.134940775 	0.134012275 	0.134786694
 Consumer01      	0.133958981 	0.134934153 	0.144679531 	0.149029381 	0.142058328 	0.126761497
 Consumer01      	0.123658011 	0.132098128 	0.1366723   	0.140484144 	0.145543042 	0.136788908
 Consumer01      	0.132303611 	0.138279394 	0.138451064 	0.135599431 	0.127825636 	0.133531506
 Consumer01      	0.139211144 	0.135801347 	0.139627811 	0.13983885  	0.138962061 	0.131805431
 Consumer01      	0.139888192 	0.140016511 	0.140156331 	0.135640169 	0.132463556 	0.131078889
 Consumer01      	0.134927342 	0.134941028 	0.135099431 	0.134988725 	0.137493069 	0.138294808
 Consumer01      	0.138143011 	0.14024635  	0.139759233 	0.139756414 	0.139902272 	0.139240111
 Consumer01      	0.127787831 	0.126923272 	0.135040161 	0.140908903 	0.142492669 	0.140239922
 Consumer01      	0.134948147 	0.134141039 	0.134319914 	0.137470044 	0.137954606 	0.138120942
 Consumer01      	0.136956939 	0.135718389 	0.138273414 	0.137110089 	0.136530578 	0.136190328
 Consumer01      	0.136392422 	0.136164411 	0.133395667 	0.133545428 	0.136300278 	0.136773192
 Consumer01      	0.137253975 	0.137111469 	0.137677381 	0.135538944 	0.129796236 	0.130710317
 Consumer01      	0.130330281 	0.134571728 	0.141315653 	0.143284225 	0.147050936 	0.145994067
 Consumer01      	0.139013572 	0.130700203 	0.126579794 	0.130672864 	0.136185897 	0.143169936
 Consumer01      	0.144231017 	0.146731775 	0.145894869 	0.136487831 	0.131041581 	0.127337436
 Consumer01      	0.128222514 	0.139514083 	0.140101864 	0.139556261 	0.13811135  	0.135106169
 Consumer01      	0.137699583 	0.13865605  	0.139077658 	0.136709375 	0.134744086 	0.129718656
 Consumer01      	0.131990461 	0.135282372 	0.143032531 	0.142214169 	0.135613275 	0.13346505
 Consumer01      	0.134433819 	0.138348233 	0.138336556 	0.137618575 	0.132339075 	0.128324131
 Consumer01      	0.134544822 	0.134266903 	0.1369222   	0.14160465  	0.141459431 	0.141565233
 Consumer01      	0.138273472 	0.138286367 	0.138281236 	0.135001728 	0.129688142 	0.134997003
 Consumer01      	0.141656278 	0.141572614 	0.136405692 	0.133651761 	0.13436065  	0.135734092
 Consumer01      	0.139793739 	0.139734614 	0.143271933 	0.14079615  	0.134934314 	0.135976139
 Consumer01      	0.142202569 	0.139098806 	0.138283517 	0.138276169 	0.137923642 	0.130012975
 Consumer01      	0.130380456 	0.138517661 	0.135061708 	0.134361533 	0.132892122 	0.128279525
 Consumer01      	0.128049086 	0.137198464 	0.141718111 	0.143966664 	0.141960975 	0.137391114
 Consumer01      	0.135426681 	0.129802439 	0.129928128 	0.129912336 	0.136671553 	0.140630778
 Consumer01      	0.143334283 	0.137346575 	0.130435292 	0.130057564 	0.131448139 	0.134939969
 Consumer01      	0.134932111 	0.140739608 	0.143263192 	0.140251831 	0.131545969 	0.129950953
 Consumer01      	0.12705575  	0.120315244 	0.117456011 	0.099584039 	0.101574481 	0.111874453
 Consumer01      	0.113409447 	0.110404114 	0.115958822 	0.114741778 	0.112056347 	0.108938292
 Consumer01      	0.111250756 	0.111042594 	0.105130933 	0.105534575 	0.116498686 	0.113808458
 Consumer01      	0.109281975 	0.110216747 	0.110068494 	0.110180981 	0.109914933 	0.110377353
 Consumer01      	0.109921689 	0.10992345  	0.109962511 	0.109911328 	0.1099215   	0.109908683
 Consumer01      	0.109970972 	0.109918119 	0.110080619 	0.109321128 	0.108671789 	0.1090341
 Consumer01      	0.108401731 	0.109299439 	0.107166356 	0.106574908 	0.106579167 	0.106573064
 Consumer01      	0.106581731 	0.107531333 	0.110533653 	0.110683228 	0.110132394 	0.111056586
 Consumer01      	0.110731475 	0.1147402   	0.114930831 	0.114927922 	0.113094461 	0.110837072
 Consumer01      	0.109014719 	0.106096683 	0.106040486 	0.107604864 	0.112226039 	0.112410106
 Consumer01      	0.11225885  	0.112226733 	0.113113214 	0.111970383 	0.107460683 	0.107028869
 Consumer01      	0.107801272 	0.106846972 	0.111021386 	0.1132531   	0.113253128 	0.113250819
 Consumer01      	0.113230583 	0.113401122 	0.113163581 	0.109776364 	0.10858     	0.108403017
 Consumer01      	0.108710444 	0.107514219 	0.107706281 	0.109541217 	0.114297203 	0.115099825
 Consumer01      	0.111443356 	0.109912092 	0.109915325 	0.109917361 	0.110076883 	0.109916558
 Consumer01      	0.109909833 	0.109916344 	0.109973119 	0.109916489 	0.109916422 	0.109904192
 Consumer01      	0.109914936 	0.109917825 	0.109910469 	0.109916544 	0.109914256 	0.109922619
 Consumer01      	0.109918786 	0.10991165  	0.109914528 	0.109924683 	0.109919078 	0.109911581
 Consumer01      	0.109914733 	0.109914403 	0.109916281 	0.109920281 	0.109926114 	0.109915664
 Consumer01      	0.1099084   	0.109902292 	0.109910764 	0.109913728 	0.109061331 	0.111878233
 Consumer01      	0.113095286 	0.113233508 	0.112903464 	0.109820303 	0.109701864 	0.109660931
 Consumer01      	0.109920753 	0.109914294 	0.109913161 	0.109926667 	0.109906783 	0.109914214
 Consumer01      	0.109909986 	0.110222492 	0.110263317 	0.111112692 	0.112605697 	0.112630881
 Consumer01      	0.112377411 	0.111891075 	0.110627064 	0.110409733 	0.110564644 	0.110199217
 Consumer01      	0.110616794 	0.110083578 	0.109915722 	0.109915989 	0.109909433 	0.109923994
 Consumer01      	0.109908756 	0.110877978 	0.112374747 	0.112444433 	0.112178467 	0.112017742
 Consumer01      	0.111461881 	0.109348917 	0.106580344 	0.106576581 	0.106580378 	0.106560025
 Consumer01      	0.106453367 	0.108777094 	0.112706928 	0.118358169 	0.113397133 	0.110197364
 Consumer01      	0.110111783 	0.108108356 	0.107008786 	0.107535022 	0.110670667 	0.114171769
 Consumer01      	0.116822492 	0.116258533 	0.112048481 	0.105154178 	0.105260514 	0.107830194
 Consumer01      	0.122461617 	0.144820011 	0.160455522 	0.157823294 	0.149099178 	0.144655575
 Consumer01      	0.140121775 	0.135402547 	0.131218767 	0.131866311 	0.136260714 	0.145334839
 Consumer01      	0.146721106 	0.146348433 	0.146220819 	0.14536635  	0.141080953 	0.136661756
 Consumer01      	0.132177133 	0.134994672 	0.148575058 	0.147242753 	0.146221    	0.13986995
 Consumer01      	0.137630103 	0.13739265  	0.139673694 	0.143496422 	0.149559903 	0.154943278
 Consumer01      	0.153229083 	0.138080397 	0.127942275 	0.126822889 	0.133138286 	0.138899856
 Consumer01      	0.142701817 	0.149864211 	0.149498289 	0.144323158 	0.132403683 	0.127569736
 Consumer01      	0.136267656 	0.148294739 	0.150048414 	0.153281814 	0.143366489 	0.136231933
 Consumer01      	0.129077483 	0.130432322 	0.141088458 	0.148647383 	0.146236442 	0.143113172
 Consumer01      	0.143258156 	0.142072644 	0.142961144 	0.142079994 	0.136398856 	0.135936758
 Consumer01      	0.136392358 	0.141926506 	0.14346325  	0.143792139 	0.144957431 	0.142497583
 Consumer01      	0.142676486 	0.141231058 	0.141582911 	0.1418115   	0.142196367 	0.141898369
 Consumer01      	0.142136317 	0.140628561 	0.138679439 	0.139757728 	0.142972717 	0.147655311
 Consumer01      	0.145805189 	0.142897753 	0.140417128 	0.140405883 	0.139831569 	0.135741583
 Consumer01      	0.132377683 	0.131206742 	0.131071622 	0.136323603 	0.139836058 	0.149914117
 Consumer01      	0.149801547 	0.149165192 	0.144769836 	0.135053631 	0.134051492 	0.13165885
 Consumer01      	0.137656606 	0.140767906 	0.146702931 	0.143641892 	0.141135761 	0.140696378
 Consumer01      	0.141255592 	0.141787417 	0.137974775 	0.141826647 	0.146005153 	0.142091711
 Consumer01      	0.139777103 	0.139574969 	0.138352431 	0.138274586 	0.137488611 	0.137644722
 Consumer01      	0.140211433 	0.141249469 	0.141757869 	0.143250525 	0.143079578 	0.143174669
 Consumer01      	0.142794092 	0.143089672 	0.142186244 	0.139083703 	0.136683842 	0.136676742
 Consumer01      	0.137907064 	0.141756758 	0.142446019 	0.142160983 	0.142648111 	0.142630269
 Consumer01      	0.142776047 	0.142261386 	0.142289886 	0.142088411 	0.142386394 	0.141436169
 Consumer01      	0.138426625 	0.138368872 	0.138433975 	0.136206553 	0.133417764 	0.133023106
 Consumer01      	0.134941456 	0.138681175 	0.143336056 	0.143272967 	0.143256128 	0.141607242
 Consumer01      	0.134983672 	0.135525881 	0.136307536 	0.13869815  	0.141805683 	0.143276494
 Consumer01      	0.143263614 	0.146440119 	0.146209169 	0.139018147 	0.138428961 	0.139518131
 Consumer01      	0.140075319 	0.14113625  	0.141246267 	0.142071203 	0.143335653 	0.143083953
 Consumer01      	0.143107089 	0.142478228 	0.138946242 	0.133836308 	0.131671331 	0.131661294
 Consumer01      	0.136218375 	0.139856392 	0.143291544 	0.144700767 	0.149525464 	0.148096817
 Consumer01      	0.1211936   	0.090906372 	0.090679431 	0.098490933 	0.098241189 	0.103097
 Consumer01      	0.100691233 	0.098499069 	0.096955222 	0.103055175 	0.106575369 	0.105879767
 Consumer01      	0.100000067 	0.098234339 	0.100163003 	0.105060542 	0.104740067 	0.103964686
 Consumer01      	0.099309047 	0.096476069 	0.0966134   	0.101864092 	0.103242619 	0.098254122
 Consumer01      	0.094943439 	0.091114889 	0.091744925 	0.098883925 	0.107328364 	0.108139672
 Consumer01      	0.104019631 	0.102837189 	0.101204039 	0.099840389 	0.099427831 	0.0948383
 Consumer01      	0.096306619 	0.095856747 	0.099280181 	0.100786253 	0.100943414 	0.1022056
 Consumer01      	0.102052603 	0.101874475 	0.10187395  	0.097737919 	0.097908136 	0.102736639
 Consumer01      	0.104456308 	0.101806517 	0.098680206 	0.094883022 	0.094879531 	0.094861231
 Consumer01      	0.096312303 	0.100179856 	0.103611694 	0.103192764 	0.098881014 	0.099484019
 Consumer01      	0.099496136 	0.098243783 	0.101068431 	0.102401017 	0.103748739 	0.103782525
 Consumer01      	0.100168742 	0.098224883 	0.098321711 	0.100513869 	0.100397361 	0.100192011
 Consumer01      	0.099896503 	0.100039372 	0.099588081 	0.097672847 	0.098052161 	0.098208472
 Consumer01      	0.09821935  	0.098015403 	0.098093231 	0.0982267   	0.099700942 	0.102658928
 Consumer01      	0.102778147 	0.103239997 	0.100408344 	0.099738936 	0.09625785  	0.096637633
 Consumer01      	0.099944747 	0.103232992 	0.104545628 	0.107804669 	0.106516406 	0.103562294
 Consumer01      	0.093758053 	0.0940859   	0.095191925 	0.107722697 	0.109893392 	0.107281031
 Consumer01      	0.098658581 	0.095379114 	0.094899606 	0.097242572 	0.102862894 	0.104086817
 Consumer01      	0.104219108 	0.099477456 	0.094788419 	0.096619464 	0.106383042 	0.106566067
 Consumer01      	0.105127822 	0.104526819 	0.098821469 	0.098222422 	0.098221117 	0.098224939
 Consumer01      	0.091411622 	0.090588325 	0.100601347 	0.106249258 	0.106603503 	0.1078548
 Consumer01      	0.103389269 	0.095794433 	0.094886944 	0.094980308 	0.095012433 	0.100205539
 Consumer01      	0.103105064 	0.106555856 	0.110540403 	0.112625769 	0.099201842 	0.098226717
 Consumer01      	0.098226669 	0.098211511 	0.098227392 	0.095494236 	0.094901772 	0.096404994
 Consumer01      	0.101506083 	0.102482547 	0.103367339 	0.103730575 	0.102163703 	0.101350892
 Consumer01      	0.101548994 	0.101808022 	0.101983228 	0.100972294 	0.09822085  	0.098242828
 Consumer01      	0.098752372 	0.103667817 	0.106329586 	0.106231172 	0.106392097 	0.102785194
 Consumer01      	0.099745386 	0.098147761 	0.097809264 	0.098180358 	0.101222167 	0.102830486
 Consumer01      	0.098294908 	0.098821475 	0.098591719 	0.098306939 	0.107389336 	0.112889858
 Consumer01      	0.110988881 	0.096265711 	0.095037581 	0.092959328 	0.09446265  	0.098925922
 Consumer01      	0.1095409   	0.114832483 	0.111517125 	0.104527433 	0.098635844 	0.098221158
 Consumer01      	0.095981303 	0.105752228 	0.110209958 	0.113879189 	0.108336419 	0.098979708
 Consumer01      	0.098229914 	0.103695489 	0.103185669 	0.098369367 	0.098227647 	0.108461542
 Consumer01      	0.109918881 	0.109905419 	0.105379064 	0.098572428 	0.098224131 	0.098860719
 Consumer01      	0.098235358 	0.099263611 	0.104272192 	0.108234328 	0.110558061 	0.110909119
 Consumer01      	0.109118597 	0.106849242 	0.098519061 	0.099402044 	0.104280156 	0.104451778
 Consumer01      	0.103230783 	0.103078325 	0.104123175 	0.106563906 	0.106561511 	0.106565594
 Consumer01      	0.106499175 	0.104693853 	0.104673897 	0.104238914 	0.104452856 	0.104148158