[TITLE]


[JUNCTIONS]
;ID              	Elev        	Demand      	Pattern         
 J_1             	1029.575    	6.415       	11              	;
 J_10            	984.0994    	3.966       	11              	;
 J_100           	1000.776    	1.009       	11              	;
 J_101           	997.3115    	3.545       	11              	;
 J_102           	1029.072    	3.382       	11              	;
 J_103           	1006.542    	2.323       	11              	;
 J_104           	982.5245    	1.813       	11              	;
 J_105           	972.4143    	2.895       	11              	;
 J_106           	1011.625    	1.119       	11              	;
 J_107           	1022.269    	3.173       	11              	;
 J_108           	1034.838    	6.055       	11              	;
 J_109           	1002.23     	1.958       	11              	;
 J_11            	970.0201    	2.298       	11              	;
 J_110           	1000.35     	3.782       	11              	;
 J_111           	969.1479    	7.543       	11              	;
 J_112           	946.5546    	7.393       	11              	;
 J_113           	943.78      	2.07        	11              	;
 J_114           	966.9995    	3.944       	11              	;
 J_115           	979.9251    	1.741       	11              	;
 J_116           	971.8805    	0.787       	11              	;
 J_117           	974.0947    	0.709       	11              	;
 J_118           	973.339     	1.698       	11              	;
 J_119           	992.8581    	1.603       	11              	;
 J_12            	1021.051    	1.898       	11              	;
 J_120           	988.8747    	0.333       	11              	;
 J_121           	940.998     	2.373       	11              	;
 J_122           	956.1245    	3.857       	11              	;
 J_123           	1001.982    	3.641       	11              	;
 J_124           	1001.982    	3.377       	11              	;
 J_125           	1020.523    	3.246       	11              	;
 J_126           	1027.357    	5.589       	11              	;
 J_127           	1010.766    	1.173       	11              	;
 J_128           	982.9119    	2.291       	11              	;
 J_129           	968.0427    	2.644       	11              	;
 J_13            	1028.419    	0.66        	11              	;
 J_130           	949.7652    	2.304       	11              	;
 J_131           	969.2883    	1.135       	11              	;
 J_132           	1031.491    	1.083       	11              	;
 J_133           	987.094     	1.272       	11              	;
 J_134           	979.0064    	1.08        	11              	;
 J_135           	993.0157    	0.903       	11              	;
 J_136           	1003.406    	5.373       	11              	;
 J_137           	966.4907    	1.996       	11              	;
 J_138           	977.8324    	2.277       	11              	;
 J_139           	930.9647    	1.62        	11              	;
 J_14            	1007.591    	4.35        	11              	;
 J_140           	922.251     	1.655       	11              	;
 J_141           	979.1622    	0.923       	11              	;
 J_142           	960.2324    	0.599       	11              	;
 J_143           	1023.322    	5.816       	11              	;
 J_144           	1028.512    	9.543       	11              	;
 J_145           	1007.941    	3.483       	11              	;
 J_146           	970.817     	8.881       	11              	;
 J_147           	1028.647    	3.589       	11              	;
 J_148           	929.269     	0.71        	11              	;
 J_149           	998.1574    	3.337       	11              	;
 J_15            	1000.163    	1.637       	11              	;
 J_150           	1004.961    	2.16        	11              	;
 J_151           	969.1839    	3.98        	11              	;
 J_152           	960.4598    	2.108       	11              	;
 J_153           	959.2002    	0.603       	11              	;
 J_154           	962.0548    	1.787       	11              	;
 J_155           	982.03      	1.448       	11              	;
 J_156           	987.3776    	0.351       	11              	;
 J_157           	985.6181    	0.19        	11              	;
 J_158           	991.2371    	2.986       	11              	;
 J_159           	933.4081    	2.508       	11              	;
 J_16            	968.3788    	2.917       	11              	;
 J_160           	980.1864    	2.707       	11              	;
 J_161           	976.2669    	2.065       	11              	;
 J_162           	971.3167    	1.926       	11              	;
 J_163           	1007.827    	0.85        	11              	;
 J_164           	1005.273    	2.048       	11              	;
 J_165           	980.0199    	2.742       	11              	;
 J_166           	984.2951    	1.067       	11              	;
 J_167           	984.7113    	1.911       	11              	;
 J_168           	972.3415    	2.069       	11              	;
 J_169           	950.3118    	1.638       	11              	;
 J_17            	1023.53     	3.348       	11              	;
 J_170           	980.6709    	0.434       	11              	;
 J_171           	992.2114    	1.06        	11              	;
 J_172           	948.7723    	2.916       	11              	;
 J_173           	942.7568    	2.335       	11              	;
 J_174           	1008.895    	1.235       	11              	;
 J_175           	1014.983    	0.395       	11              	;
 J_176           	989.9474    	4.954       	11              	;
 J_177           	992.2979    	3.002       	11              	;
 J_178           	943.5262    	2.534       	11              	;
 J_179           	950.1769    	1.639       	11              	;
 J_18            	1043.906    	1.458       	11              	;
 J_180           	980.0025    	0.819       	11              	;
 J_181           	982.388     	1.508       	11              	;
 J_182           	958.7785    	2.298       	11              	;
 J_183           	979.0664    	1.098       	11              	;
 J_184           	992.3895    	1.351       	11              	;
 J_185           	1034.5      	2.74        	11              	;
 J_186           	1021.664    	0.182       	11              	;
 J_187           	1017.358    	1.627       	11              	;
 J_188           	1000.366    	2.976       	11              	;
 J_189           	966.3328    	3.64        	11              	;
 J_19            	1005.971    	1.106       	11              	;
 J_190           	996.1157    	1.955       	11              	;
 J_191           	965.7113    	1.363       	11              	;
 J_192           	965.6412    	0.167       	11              	;
 J_193           	1006.972    	0.814       	11              	;
 J_194           	977.3644    	0.941       	11              	;
 J_195           	1004.073    	0.328       	11              	;
 J_196           	985.2576    	1.603       	11              	;
 J_197           	972.678     	2.094       	11              	;
 J_198           	989.4471    	0.229       	11              	;
 J_199           	997.0794    	2.955       	11              	;
 J_2             	1030.513    	1.773       	11              	;
 J_20            	1006.323    	0.337       	11              	;
 J_200           	977.5614    	3.284       	11              	;
 J_201           	995.8018    	1.673       	11              	;
 J_202           	988.1341    	15.917      	11              	;
 J_203           	988.814     	4.109       	11              	;
 J_204           	978.3623    	0.724       	11              	;
 J_205           	973.1359    	0.309       	11              	;
 J_206           	994.1114    	1.251       	11              	;
 J_207           	991.5006    	1.285       	11              	;
 J_208           	982.7074    	1.753       	11              	;
 J_209           	1018.19     	3.595       	11              	;
 J_21            	955.1851    	1.025       	11              	;
 J_210           	948.0288    	1.024       	11              	;
 J_211           	958.7219    	4.68        	11              	;
 J_212           	922.6263    	0.346       	11              	;
 J_213           	1001.686    	1.252       	11              	;
 J_214           	1011.837    	1.193       	11              	;
 J_215           	988.328     	0.911       	11              	;
 J_216           	973.9664    	0.917       	11              	;
 J_217           	961.932     	2.781       	11              	;
 J_218           	999.1927    	1.024       	11              	;
 J_219           	977.4782    	2.4         	11              	;
 J_22            	960.0713    	8.082       	11              	;
 J_220           	983.4874    	0.653       	11              	;
 J_221           	954.0793    	1.245       	11              	;
 J_222           	959.5373    	1.445       	11              	;
 J_223           	1016.464    	2.411       	11              	;
 J_224           	1010.849    	0.719       	11              	;
 J_225           	976.8747    	0.762       	11              	;
 J_226           	960.0719    	0.771       	11              	;
 J_227           	925.3527    	1.443       	11              	;
 J_228           	939.2882    	1.87        	11              	;
 J_229           	997.7607    	3.711       	11              	;
 J_23            	998.2737    	2.048       	11              	;
 J_230           	1013.745    	2.351       	11              	;
 J_231           	999.4878    	0.759       	11              	;
 J_232           	948.2851    	1.577       	11              	;
 J_233           	964.6378    	1.263       	11              	;
 J_234           	1000.896    	2.489       	11              	;
 J_235           	985.7973    	0.802       	11              	;
 J_236           	993.2907    	5.04        	11              	;
 J_237           	1031.566    	4.164       	11              	;
 J_238           	998.1294    	3.662       	11              	;
 J_239           	905.382     	1.109       	11              	;
 J_24            	1016.039    	2.726       	11              	;
 J_240           	937.9698    	3.134       	11              	;
 J_241           	1004.403    	21.002      	11              	;
 J_242           	1026.538    	4.553       	11              	;
 J_243           	1010.452    	1.72        	11              	;
 J_244           	985.8491    	2.984       	11              	;
 J_245           	991.3072    	0.839       	11              	;
 J_246           	1018.971    	2.673       	11              	;
 J_247           	1008.532    	3.613       	11              	;
 J_248           	969.0461    	0.156       	11              	;
 J_249           	946.6986    	3.625       	11              	;
 J_25            	985.3559    	4.758       	11              	;
 J_250           	982.3006    	4.103       	11              	;
 J_251           	1007.957    	2.056       	11              	;
 J_252           	1012.22     	0.494       	11              	;
 J_253           	1006.953    	2.117       	11              	;
 J_254           	1021.529    	2.379       	11              	;
 J_255           	960.5729    	4.563       	11              	;
 J_256           	979.8053    	3.034       	11              	;
 J_257           	1001.626    	0.975       	11              	;
 J_258           	1004.481    	0.271       	11              	;
 J_259           	1009.172    	1.08        	11              	;
 J_26            	999.8346    	6.291       	11              	;
 J_260           	1008.62     	1.566       	11              	;
 J_261           	961.7413    	3.993       	11              	;
 J_262           	978.874     	3.569       	11              	;
 J_263           	1014.837    	2.266       	11              	;
 J_264           	1008.641    	1.098       	11              	;
 J_265           	973.9628    	0.771       	11              	;
 J_266           	1038.53     	2.054       	11              	;
 J_267           	972.9882    	0.286       	11              	;
 J_268           	1008.552    	2.435       	11              	;
 J_269           	1005.379    	1.416       	11              	;
 J_27            	927.4074    	0.92        	11              	;
 J_270           	1006.676    	1.679       	11              	;
 J_271           	1007.279    	1.681       	11              	;
 J_272           	967.4098    	1.35        	11              	;
 J_273           	954.3771    	4.192       	11              	;
 J_274           	969.5304    	1.617       	11              	;
 J_275           	968.9196    	0.723       	11              	;
 J_276           	1015.554    	4.21        	11              	;
 J_277           	1009.806    	3.212       	11              	;
 J_278           	989.5219    	4.682       	11              	;
 J_279           	991.2819    	1.346       	11              	;
 J_28            	925.1905    	0.157       	11              	;
 J_280           	966.3226    	1.53        	11              	;
 J_281           	966.46      	1.121       	11              	;
 J_282           	1032.153    	1.699       	11              	;
 J_283           	1030.914    	0.302       	11              	;
 J_284           	959.4582    	4.238       	11              	;
 J_285           	967.1019    	1.841       	11              	;
 J_286           	968.6343    	0.298       	11              	;
 J_287           	1028.029    	3.419       	11              	;
 J_288           	1017.525    	4.976       	11              	;
 J_289           	965.9267    	1.231       	11              	;
 J_29            	1017.356    	0.463       	11              	;
 J_290           	1012.982    	2.58        	11              	;
 J_291           	1012.943    	1.406       	11              	;
 J_292           	1021.373    	3.156       	11              	;
 J_293           	1018.926    	8.35        	11              	;
 J_294           	1020.214    	0.115       	11              	;
 J_295           	962.8791    	2.831       	11              	;
 J_296           	950.3785    	1.696       	11              	;
 J_297           	970.8898    	0.48        	11              	;
 J_298           	983.7399    	0.485       	11              	;
 J_299           	991.4436    	1.454       	11              	;
 J_3             	979.7776    	12          	11              	;
 J_30            	1014.235    	1.578       	11              	;
 J_300           	1021.909    	1.813       	11              	;
 J_301           	977.8315    	4.378       	11              	;
 J_302           	983.4622    	2.847       	11              	;
 J_303           	997.3553    	0.301       	11              	;
 J_304           	998.9738    	1.057       	11              	;
 J_305           	1007.847    	2.172       	11              	;
 J_306           	999.605     	1.104       	11              	;
 J_307           	998.9291    	0.865       	11              	;
 J_308           	996.1075    	1.615       	11              	;
 J_309           	997.9702    	2.114       	11              	;
 J_31            	758.6396    	6.394       	11              	;
 J_310           	1005.178    	2.377       	11              	;
 J_311           	1029.585    	1.867       	11              	;
 J_312           	1035.275    	1.868       	11              	;
 J_313           	998.3486    	1.071       	11              	;
 J_314           	994.6675    	0.682       	11              	;
 J_315           	805.4839    	14.666      	11              	;
 J_316           	851.4392    	8.058       	11              	;
 J_317           	998.2205    	2.032       	11              	;
 J_318           	1022.066    	0.834       	11              	;
 J_319           	1020.584    	3.03        	11              	;
 J_32            	763.7552    	17.554      	11              	;
 J_320           	1029.765    	6.975       	11              	;
 J_321           	999.7034    	3.744       	11              	;
 J_322           	948.0438    	0.303       	11              	;
 J_323           	996.3204    	2.695       	11              	;
 J_324           	1008.379    	1.515       	11              	;
 J_325           	962.0436    	1.919       	11              	;
 J_326           	1018.785    	3.134       	11              	;
 J_327           	1006.443    	9.624       	11              	;
 J_328           	968.2438    	1.489       	11              	;
 J_329           	946.4215    	5.326       	11              	;
 J_33            	1028.679    	4.048       	11              	;
 J_330           	978.9873    	2.666       	11              	;
 J_331           	989.5169    	2.7         	11              	;
 J_332           	997.0482    	0.563       	11              	;
 J_333           	960.9834    	0.297       	11              	;
 J_334           	992.6778    	0.751       	11              	;
 J_335           	932.5031    	5.643       	11              	;
 J_336           	984.9915    	0.996       	11              	;
 J_337           	981.2303    	1.162       	11              	;
 J_338           	1004.967    	0.579       	11              	;
 J_339           	1028.465    	1.568       	11              	;
 J_34            	1027.813    	2.073       	11              	;
 J_340           	1028.836    	0.348       	11              	;
 J_341           	1026.773    	6.702       	11              	;
 J_342           	1039.313    	1.894       	11              	;
 J_343           	990.5051    	1.456       	11              	;
 J_344           	1008.88     	1.736       	11              	;
 J_345           	1003.615    	2.801       	11              	;
 J_346           	997.8355    	3.482       	11              	;
 J_347           	997.2107    	3.224       	11              	;
 J_348           	988.3915    	1.138       	11              	;
 J_349           	1014.162    	6.005       	11              	;
 J_35            	1005.411    	2.285       	11              	;
 J_350           	984.2774    	1.244       	11              	;
 J_351           	995.9349    	1.115       	11              	;
 J_352           	984.1319    	0.34        	11              	;
 J_353           	1024.526    	3.708       	11              	;
 J_354           	946.464     	0.635       	11              	;
 J_355           	997.0718    	10.495      	11              	;
 J_356           	961.9193    	9.318       	11              	;
 J_357           	973.6265    	3.012       	11              	;
 J_358           	971.2041    	1.491       	11              	;
 J_359           	998.9547    	1.161       	11              	;
 J_36            	1007.946    	3.177       	11              	;
 J_360           	997.4408    	3.349       	11              	;
 J_361           	953.3223    	7.449       	11              	;
 J_362           	965.3915    	0.899       	11              	;
 J_363           	958.1536    	4.516       	11              	;
 J_364           	954.8756    	9.975       	11              	;
 J_365           	998.5299    	8.222       	11              	;
 J_366           	968.2902    	7.002       	11              	;
 J_367           	963.4358    	7.337       	11              	;
 J_368           	953.5088    	0           	                	;
 J_369           	1037.197    	0.603       	11              	;
 J_37            	940.0151    	2.069       	11              	;
 J_370           	993.4502    	0.494       	11              	;
 J_371           	987.5677    	0.215       	11              	;
 J_372           	980.2134    	6.114       	11              	;
 J_373           	985.7506    	0.355       	11              	;
 J_374           	1018.713    	1.28        	11              	;
 J_375           	1027.13     	1.504       	11              	;
 J_376           	988.694     	2.259       	11              	;
 J_377           	1008.012    	1.327       	11              	;
 J_378           	1014.49     	0.426       	11              	;
 J_379           	962.5612    	0.981       	11              	;
 J_38            	944.3378    	2.407       	11              	;
 J_380           	1000.674    	4.554       	11              	;
 J_381           	945.1787    	1.823       	11              	;
 J_382           	1019.585    	2.069       	11              	;
 J_383           	948.4736    	4.002       	11              	;
 J_384           	943.0079    	4.663       	11              	;
 J_385           	938.602     	4.873       	11              	;
 J_386           	931.2278    	0.525       	11              	;
 J_387           	1023.28     	4.337       	11              	;
 J_388           	949.2948    	2.593       	11              	;
 J_389           	950.1595    	0.843       	11              	;
 J_39            	1013.957    	2.321       	11              	;
 J_390           	942.2693    	3.363       	11              	;
 J_391           	975.8136    	2.518       	11              	;
 J_392           	981.7254    	0.061       	11              	;
 J_393           	1002.698    	0.095       	11              	;
 J_394           	971.9714    	3.294       	11              	;
 J_395           	975.6561    	1.983       	11              	;
 J_396           	990.9189    	2.153       	11              	;
 J_397           	981.2847    	1.875       	11              	;
 J_398           	935.6428    	6.149       	11              	;
 J_399           	1011.356    	0.778       	11              	;
 J_4             	984.0735    	4.991       	11              	;
 J_40            	1002.477    	1.959       	11              	;
 J_400           	1024.356    	1.154       	11              	;
 J_401           	958.4294    	5.118       	11              	;
 J_402           	1013.427    	0.075       	11              	;
 J_403           	1031.3      	0.477       	11              	;
 J_404           	995.3579    	3.819       	11              	;
 J_405           	993.2135    	0.323       	11              	;
 J_406           	1010.363    	1.418       	11              	;
 J_407           	1001.149    	0.286       	11              	;
 J_408           	1005.649    	3.58        	11              	;
 J_409           	1002.147    	0.419       	11              	;
 J_41            	973.2706    	4.234       	11              	;
 J_410           	1043.113    	1.41        	11              	;
 J_411           	1033.647    	3.444       	11              	;
 J_412           	957.5848    	0.984       	11              	;
 J_413           	1033.73     	2.734       	11              	;
 J_414           	1000.117    	3.803       	11              	;
 J_415           	999.1856    	1.557       	11              	;
 J_416           	969.7219    	0.466       	11              	;
 J_417           	972.764     	0.526       	11              	;
 J_418           	1000.118    	8.066       	11              	;
 J_419           	990.698     	7.387       	11              	;
 J_42            	1014.424    	1.75        	11              	;
 J_420           	970.709     	0.487       	11              	;
 J_421           	981.7128    	1.74        	11              	;
 J_422           	1029.686    	1.371       	11              	;
 J_423           	1018.019    	2.766       	11              	;
 J_424           	1005.46     	2.583       	11              	;
 J_425           	1030.705    	7.805       	11              	;
 J_426           	1005.576    	1.896       	11              	;
 J_427           	991.8022    	12.018      	11              	;
 J_428           	987.7477    	2.565       	11              	;
 J_429           	1019.454    	0.025       	11              	;
 J_43            	966.3475    	1.855       	11              	;
 J_430           	1020.425    	1.211       	11              	;
 J_431           	973.3206    	1.782       	11              	;
 J_432           	997.6281    	0.725       	11              	;
 J_433           	1000.129    	1.1         	11              	;
 J_434           	1015.367    	2.824       	11              	;
 J_435           	949.8709    	3.4         	11              	;
 J_436           	949.8709    	2.87        	11              	;
 J_437           	1016.86     	0.203       	11              	;
 J_438           	932.159     	2.454       	11              	;
 J_439           	995.3748    	0.466       	11              	;
 J_44            	955.7084    	1.716       	11              	;
 J_440           	1025.826    	1.372       	11              	;
 J_441           	1024.576    	0.723       	11              	;
 J_442           	957.364     	2.609       	11              	;
 J_443           	952.1036    	5.041       	11              	;
 J_444           	970.1163    	1.351       	11              	;
 J_445           	990.0329    	1.411       	11              	;
 J_446           	994.2432    	3.663       	11              	;
 J_447           	958.9085    	3.387       	11              	;
 J_448           	993.7408    	0.405       	11              	;
 J_449           	996.5689    	1.328       	11              	;
 J_45            	997.7993    	3.669       	11              	;
 J_450           	992.5943    	1.219       	11              	;
 J_451           	772.2218    	6.317       	11              	;
 J_452           	973.5021    	2.044       	11              	;
 J_453           	998.5526    	5.156       	11              	;
 J_454           	1024.713    	0.122       	11              	;
 J_455           	1028.102    	1.787       	11              	;
 J_456           	947.7872    	2.503       	11              	;
 J_457           	994.1859    	1.691       	11              	;
 J_458           	974.2379    	3.051       	11              	;
 J_459           	980.9432    	1.131       	11              	;
 J_46            	988.2012    	2.238       	11              	;
 J_460           	972.7377    	0.994       	11              	;
 J_461           	1029.376    	0.735       	11              	;
 J_462           	978.4165    	4.105       	11              	;
 J_463           	1025.854    	0.633       	11              	;
 J_464           	951.4462    	3.345       	11              	;
 J_465           	973.7489    	2.451       	11              	;
 J_466           	1001.625    	1.387       	11              	;
 J_467           	1007.086    	3.998       	11              	;
 J_468           	976.708     	0.694       	11              	;
 J_469           	987.3826    	1.441       	11              	;
 J_47            	1008.761    	3.5         	11              	;
 J_470           	995.6278    	1.565       	11              	;
 J_471           	1028.025    	1.443       	11              	;
 J_472           	930.9192    	0.187       	11              	;
 J_473           	941.5976    	0.906       	11              	;
 J_474           	1033.886    	2.507       	11              	;
 J_475           	1025.898    	1.673       	11              	;
 J_476           	1024.667    	3.547       	11              	;
 J_477           	1024.257    	4.13        	11              	;
 J_478           	992.7101    	2.347       	11              	;
 J_479           	1008.505    	1.565       	11              	;
 J_48            	1012.278    	0.919       	11              	;
 J_480           	946.4823    	0.125       	11              	;
 J_481           	1031.936    	0.602       	11              	;
 J_482           	1014.402    	2.39        	11              	;
 J_483           	949.9455    	0.493       	11              	;
 J_484           	913.5757    	0.359       	11              	;
 J_485           	951.7323    	1.63        	11              	;
 J_486           	986.7896    	0.964       	11              	;
 J_487           	986.6153    	1.294       	11              	;
 J_488           	960.65      	0.356       	11              	;
 J_489           	1024.262    	0.441       	11              	;
 J_49            	991.5135    	1.295       	11              	;
 J_490           	965.8425    	0.167       	11              	;
 J_491           	1018.576    	0.833       	11              	;
 J_492           	970.7839    	1.503       	11              	;
 J_493           	1031.866    	3.768       	11              	;
 J_494           	1042.555    	2.838       	11              	;
 J_495           	983.5263    	0.253       	11              	;
 J_496           	1012.955    	0.588       	11              	;
 J_497           	985.4211    	2.269       	11              	;
 J_498           	1018.166    	0.639       	11              	;
 J_499           	1009.13     	1.556       	11              	;
 J_5             	963.2766    	3.28        	11              	;
 J_50            	999.6025    	2.125       	11              	;
 J_500           	1005.903    	2.531       	11              	;
 J_501           	1045.107    	1.01        	11              	;
 J_502           	1018.962    	2.433       	11              	;
 J_503           	1006.041    	5.57        	11              	;
 J_504           	982.7085    	1.661       	11              	;
 J_505           	999.9948    	4.48        	11              	;
 J_506           	962.9827    	2.146       	11              	;
 J_507           	948.1227    	0           	                	;
 J_508           	996.5585    	4.661       	11              	;
 J_509           	980.1163    	0.492       	11              	;
 J_51            	1003.85     	0.708       	11              	;
 J_510           	969.1694    	1.113       	11              	;
 J_511           	988.8206    	0.699       	11              	;
 J_512           	995.5811    	0.53        	11              	;
 J_513           	968.5947    	1.183       	11              	;
 J_514           	953.7171    	3.091       	11              	;
 J_515           	940.8543    	0           	                	;
 J_516           	1047.392    	0.898       	11              	;
 J_517           	998.8805    	1.199       	11              	;
 J_518           	985.7792    	0.253       	11              	;
 J_519           	1018.025    	0.299       	11              	;
 J_52            	968.6379    	1.585       	11              	;
 J_520           	999.0581    	2.165       	11              	;
 J_521           	1010.509    	2.737       	11              	;
 J_522           	1015.569    	1.371       	11              	;
 J_523           	1009.925    	1.63        	11              	;
 J_524           	1010.143    	1.824       	11              	;
 J_525           	1000.235    	0.65        	11              	;