[TITLE]


[JUNCTIONS]
;ID              	Elev        	Demand      	Pattern         
 J_1             	410.105     	5.19        	2               	;
 J_10            	413.3858    	4.41        	2               	;
 J_100           	406.8242    	2.47        	2               	;
 J_102           	439.6325    	3.07        	2               	;
 J_103           	436.3517    	2.27        	2               	;
 J_104           	439.6325    	3.79        	2               	;
 J_105           	423.2284    	5.62        	2               	;
 J_106           	423.2284    	5.13        	2               	;
 J_107           	442.9134    	1.57        	2               	;
 J_108           	439.6325    	8.62        	2               	;
 J_11            	403.5433    	4.61        	2               	;
 J_110           	426.5092    	2.21        	2               	;
 J_111           	406.8242    	5.25        	2               	;
 J_112           	423.2284    	5.86        	2               	;
 J_113           	426.5092    	3.12        	2               	;
 J_114           	426.5092    	4.68        	2               	;
 J_115           	436.3517    	3.45        	2               	;
 J_116           	436.3517    	10.43       	2               	;
 J_117           	436.3517    	6.11        	2               	;
 J_118           	439.6325    	3.14        	2               	;
 J_119           	426.5092    	6.14        	2               	;
 J_12            	423.2284    	4.38        	2               	;
 J_120           	472.4409    	6.86        	2               	;
 J_121           	469.1601    	5.27        	2               	;
 J_122           	419.9475    	7.39        	2               	;
 J_123           	419.9475    	7.05        	2               	;
 J_124           	449.4751    	3.67        	2               	;
 J_125           	459.3176    	5.7         	2               	;
 J_126           	456.0367    	5.4         	2               	;
 J_127           	472.4409    	2.33        	2               	;
 J_128           	452.7559    	3.66        	2               	;
 J_129           	456.0367    	5.16        	2               	;
 J_13            	442.9134    	2.93        	2               	;
 J_130           	433.0709    	1.01        	2               	;
 J_131           	433.0709    	4.38        	2               	;
 J_132           	452.7559    	5.36        	2               	;
 J_133           	416.6667    	3.16        	2               	;
 J_134           	400.2625    	12.24       	2               	;
 J_135           	472.4409    	6.14        	2               	;
 J_136           	479.0026    	10.26       	2               	;
 J_137           	423.2284    	5.49        	2               	;
 J_138           	436.3517    	2.79        	2               	;
 J_139           	433.0709    	2.67        	2               	;
 J_14            	446.1942    	3.56        	2               	;
 J_140           	446.1942    	6.8         	2               	;
 J_141           	469.1601    	1.72        	2               	;
 J_142           	419.9475    	2.57        	2               	;
 J_143           	423.2284    	1.93        	2               	;
 J_144           	459.3176    	4.55        	2               	;
 J_145           	429.79      	4.27        	2               	;
 J_146           	429.79      	3.64        	2               	;
 J_147           	452.7559    	10.38       	2               	;
 J_148           	462.5984    	3.71        	2               	;
 J_149           	423.2284    	11.9        	2               	;
 J_15            	416.6667    	4.32        	2               	;
 J_150           	413.3858    	5.06        	2               	;
 J_151           	433.0709    	5.49        	2               	;
 J_152           	462.5984    	6.16        	2               	;
 J_153           	449.4751    	5.41        	2               	;
 J_154           	452.7559    	1.93        	2               	;
 J_155           	462.5984    	2.17        	2               	;
 J_156           	426.5092    	2.68        	2               	;
 J_157           	423.2284    	5.04        	2               	;
 J_158           	419.9475    	8.82        	2               	;
 J_159           	452.7559    	6.38        	2               	;
 J_16            	433.0709    	4.38        	2               	;
 J_160           	406.8242    	14.35       	2               	;
 J_162           	452.7559    	5.6         	2               	;
 J_163           	419.9475    	2.06        	2               	;
 J_164           	419.9475    	8.1         	2               	;
 J_165           	436.3517    	7.3         	2               	;
 J_166           	433.0709    	5.45        	2               	;
 J_167           	439.6325    	7.06        	2               	;
 J_168           	449.4751    	6.72        	2               	;
 J_17            	410.105     	7.41        	2               	;
 J_170           	410.105     	7.14        	2               	;
 J_171           	442.9134    	8.41        	2               	;
 J_172           	429.79      	5.18        	2               	;
 J_173           	456.0367    	4.55        	2               	;
 J_174           	439.6325    	22.75       	2               	;
 J_175           	465.8793    	4.24        	2               	;
 J_176           	439.6325    	4.55        	2               	;
 J_177           	423.2284    	7.77        	2               	;
 J_178           	442.9134    	4.7         	2               	;
 J_179           	439.6325    	5.48        	2               	;
 J_18            	465.8793    	1.12        	2               	;
 J_180           	442.9134    	8.73        	2               	;
 J_181           	433.0709    	7.17        	2               	;
 J_182           	426.5092    	3.29        	2               	;
 J_183           	429.79      	3.85        	2               	;
 J_184           	419.9475    	4.44        	2               	;
 J_185           	429.79      	6.23        	2               	;
 J_186           	442.9134    	7.56        	2               	;
 J_187           	426.5092    	4.53        	2               	;
 J_188           	433.0709    	0.15        	2               	;
 J_189           	426.5092    	4.59        	2               	;
 J_19            	406.8242    	3.38        	2               	;
 J_190           	482.2835    	7.18        	2               	;
 J_191           	419.9475    	6.95        	2               	;
 J_192           	426.5092    	7.01        	2               	;
 J_193           	423.2284    	1.71        	2               	;
 J_194           	436.3517    	2.8         	2               	;
 J_195           	439.6325    	3.66        	2               	;
 J_196           	442.9134    	6.55        	2               	;
 J_197           	416.6667    	2.62        	2               	;
 J_198           	433.0709    	5.97        	2               	;
 J_199           	426.5092    	10.57       	2               	;
 J_2             	413.3858    	5.86        	2               	;
 J_20            	416.6667    	4.39        	2               	;
 J_200           	452.7559    	4.86        	2               	;
 J_201           	446.1942    	6.53        	2               	;
 J_202           	469.1601    	3.11        	2               	;
 J_203           	475.7218    	4.11        	2               	;
 J_204           	465.8793    	4.94        	2               	;
 J_206           	419.9475    	6.57        	2               	;
 J_207           	433.0709    	5.34        	2               	;
 J_208           	433.0709    	4.12        	2               	;
 J_209           	442.9134    	11.36       	2               	;
 J_21            	403.5433    	4.39        	2               	;
 J_210           	479.0026    	12.14       	2               	;
 J_211           	426.5092    	3.73        	2               	;
 J_212           	433.0709    	17.01       	2               	;
 J_213           	436.3517    	15.41       	2               	;
 J_214           	452.7559    	5.06        	2               	;
 J_215           	423.2284    	5.84        	2               	;
 J_216           	419.9475    	4.06        	2               	;
 J_217           	442.9134    	2.07        	2               	;
 J_218           	419.9475    	25.35       	2               	;
 J_219           	416.6667    	1.42        	2               	;
 J_22            	419.9475    	4.38        	2               	;
 J_220           	442.9134    	2.6         	2               	;
 J_221           	406.8242    	3.89        	2               	;
 J_222           	433.0709    	5.38        	2               	;
 J_223           	410.105     	2.84        	2               	;
 J_225           	465.8793    	2.78        	2               	;
 J_226           	449.4751    	8.59        	2               	;
 J_227           	449.4751    	2.74        	2               	;
 J_228           	446.1942    	5.65        	2               	;
 J_229           	465.8793    	7.21        	2               	;
 J_23            	429.79      	6.35        	2               	;
 J_230           	426.5092    	4.88        	2               	;
 J_231           	436.3517    	1.27        	2               	;
 J_232           	469.1601    	6.64        	2               	;
 J_233           	416.6667    	2.19        	2               	;
 J_235           	433.0709    	5.53        	2               	;
 J_236           	469.1601    	4.52        	2               	;
 J_237           	469.1601    	5.68        	2               	;
 J_238           	426.5092    	5.91        	2               	;
 J_239           	439.6325    	5.82        	2               	;
 J_24            	452.7559    	2.65        	2               	;
 J_240           	439.6325    	1.05        	2               	;
 J_241           	459.3176    	5.84        	2               	;
 J_242           	446.1942    	6.05        	2               	;
 J_243           	472.4409    	3.77        	2               	;
 J_244           	472.4409    	7.53        	2               	;
 J_245           	429.79      	1.61        	2               	;
 J_246           	452.7559    	7.96        	2               	;
 J_249           	472.4409    	1.24        	2               	;
 J_25            	416.6667    	4.82        	2               	;
 J_250           	439.6325    	10.39       	2               	;
 J_251           	429.79      	4.57        	2               	;
 J_252           	429.79      	7.28        	2               	;
 J_253           	410.105     	1.18        	2               	;
 J_255           	452.7559    	6.25        	2               	;
 J_256           	423.2284    	1.77        	2               	;
 J_257           	485.5643    	1.22        	2               	;
 J_258           	442.9134    	4.41        	2               	;
 J_259           	452.7559    	6.64        	2               	;
 J_26            	433.0709    	2.6         	2               	;
 J_260           	433.0709    	5.62        	2               	;
 J_261           	439.6325    	2.37        	2               	;
 J_262           	439.6325    	5.6         	2               	;
 J_263           	462.5984    	3.64        	2               	;
 J_265           	436.3517    	7.61        	2               	;
 J_266           	416.6667    	3.9         	2               	;
 J_267           	436.3517    	6.91        	2               	;
 J_268           	433.0709    	1.51        	2               	;
 J_269           	469.1601    	0.09        	2               	;
 J_27            	436.3517    	9.35        	2               	;
 J_270           	433.0709    	1.88        	2               	;
 J_271           	429.79      	4.67        	2               	;
 J_272           	469.1601    	5.94        	2               	;
 J_273           	457.4409    	0           	2               	;
 J_274           	457.5984    	3.85        	2               	;
 J_275           	396.9816    	9.87        	2               	;
 J_276           	406.8242    	13.14       	2               	;
 J_277           	413.3858    	3.17        	2               	;
 J_28            	452.7559    	3.29        	2               	;
 J_29            	436.3517    	5.03        	2               	;
 J_3             	433.0709    	4.46        	2               	;
 J_30            	426.5092    	5.57        	2               	;
 J_31            	413.3858    	2.3         	2               	;
 J_32            	423.2284    	2.27        	2               	;
 J_33            	426.5092    	4.26        	2               	;
 J_34            	456.0367    	2.66        	2               	;
 J_35            	416.6667    	0           	2               	;
 J_36            	439.6325    	12.7        	2               	;
 J_37            	449.4751    	2.52        	2               	;
 J_38            	413.3858    	5.7         	2               	;
 J_39            	416.6667    	4.53        	2               	;
 J_4             	442.9134    	0.36        	2               	;
 J_40            	419.9475    	8.53        	2               	;
 J_41            	419.9475    	2.17        	2               	;
 J_42            	423.2284    	5.04        	2               	;
 J_43            	426.5092    	5.03        	2               	;
 J_44            	433.0709    	4.39        	2               	;
 J_45            	429.79      	0           	2               	;
 J_46            	439.6325    	4.4         	2               	;
 J_47            	439.6325    	0           	2               	;
 J_48            	462.5984    	8.09        	2               	;
 J_49            	413.3858    	4.97        	2               	;
 J_5             	406.8242    	8.42        	2               	;
 J_52            	436.3517    	1.82        	2               	;
 J_53            	419.9475    	5.09        	2               	;
 J_54            	410.105     	6.23        	2               	;
 J_55            	419.9475    	4.45        	2               	;
 J_56            	406.8242    	2.76        	2               	;
 J_57            	419.9475    	4.37        	2               	;
 J_58            	400.2625    	96.84       	2               	;
 J_59            	416.6667    	12.03       	2               	;
 J_6             	426.5092    	2.36        	2               	;
 J_60            	403.5433    	2.35        	2               	;
 J_61            	406.8242    	13.61       	2               	;
 J_62            	419.9475    	1.98        	2               	;
 J_63            	416.6667    	8.35        	2               	;
 J_64            	416.6667    	5.27        	2               	;
 J_65            	433.0709    	4.45        	2               	;
 J_66            	433.0709    	3.16        	2               	;
 J_67            	433.0709    	4.64        	2               	;
 J_68            	429.79      	5.12        	2               	;
 J_69            	429.79      	5.2         	2               	;
 J_7             	406.8242    	5.41        	2               	;
 J_71            	419.9475    	2.35        	2               	;
 J_72            	426.5092    	2.36        	2               	;
 J_73            	426.5092    	3.25        	2               	;
 J_74            	442.9134    	0           	2               	;
 J_75            	416.6667    	4.68        	2               	;
 J_76            	439.6325    	0           	2               	;
 J_77            	462.5984    	0           	2               	;
 J_78            	465.8793    	0           	2               	;
 J_79            	426.5092    	0           	2               	;
 J_8             	413.3858    	4.97        	2               	;
 J_80            	416.6667    	4.3         	2               	;
 J_81            	446.1942    	0           	2               	;
 J_83            	433.0709    	6.57        	2               	;
 J_84            	446.1942    	4.82        	2               	;
 J_85            	419.9475    	4.66        	2               	;
 J_87            	433.0709    	4.26        	2               	;
 J_88            	423.2284    	5.07        	2               	;
 J_89            	459.3176    	5.7         	2               	;
 J_9             	403.5433    	4.41        	2               	;
 J_91            	406.8242    	4.47        	2               	;
 J_92            	416.6667    	2.51        	2               	;
 J_93            	423.2284    	0.64        	2               	;
 J_94            	429.79      	5.51        	2               	;
 J_95            	449.4751    	1.33        	2               	;
 J_96            	433.0709    	8.09        	2               	;
 J_97            	429.79      	2.58        	2               	;
 J_99            	429.79      	6.28        	2               	;
 I_Pump_1        	410.105     	0           	2               	;
 I_Pump_2        	344.4882    	0           	2               	;
 O_Pump_3        	472.4409    	0           	2               	;
 I_Pump_4        	473.2843    	0           	2               	;
 I_Pump_5        	472.4409    	0           	2               	;
 O_Pump_1        	410.105     	0           	2               	;
 O_Pump_2        	344.4882    	0           	2               	;
 I_Pump_3        	472.4409    	0           	2               	;
 O_Pump_4        	473.2843    	0           	2               	;
 O_Pump_5        	472.4409    	0           	2               	;

[RESERVOIRS]
;ID              	Head        	Pattern         
 R_1             	472.441     	                	;
 R_2             	341         	                	;
 R_3             	400         	                	;

[TANKS]
;ID              	Elevation   	InitLevel   	MinLevel    	MaxLevel    	Diameter    	MinVol      	VolCurve        	Overflow
 T_1             	459.3176    	150.6824    	140.6824    	160.6824    	65          	0           	                	;
 T_2             	452.7559    	152.2441    	147.2441    	172.2441    	58          	0           	                	;
 T_3             	465.8793    	104.1207    	94.12073    	129.1207    	44          	0           	                	;

[PIPES]
;ID              	Node1           	Node2           	Length      	Diameter    	Roughness   	MinorLoss   	Status
 P_1             	J_1             	J_2             	758.71      	6           	100         	0           	Open  	;
 P_10            	J_17            	J_276           	1300.28     	8           	100         	0           	Open  	;
 P_100           	J_83            	J_53            	491.73      	8           	100         	0           	Open  	;
 P_101           	J_88            	J_42            	445.299     	8           	100         	0           	Open  	;
 P_102           	J_276           	J_31            	997.26      	8           	100         	0           	Open  	;
 P_103           	J_29            	J_27            	432.69      	8           	100         	0           	Open  	;
 P_104           	J_11            	J_1             	788.76      	10          	100         	0           	Open  	;
 P_105           	J_19            	J_9             	445.239     	10          	100         	0           	Open  	;
 P_106           	J_100           	J_19            	105.839     	10          	100         	0           	Open  	;
 P_107           	J_21            	J_11            	430.429     	10          	100         	0           	Open  	;
 P_108           	J_1             	J_5             	744.95      	10          	100         	0           	Open  	;
 P_109           	J_102           	J_103           	664.32      	6           	150         	0           	Open  	;
 P_11            	J_19            	J_20            	762.349     	6           	100         	0           	Open  	;
 P_110           	J_104           	J_102           	267.16      	6           	150         	0           	Open  	;
 P_111           	J_105           	J_106           	64.69       	12          	150         	0           	Open  	;
 P_112           	J_107           	J_102           	59.909      	6           	150         	0           	Open  	;
 P_113           	J_108           	J_48            	2085.169    	8           	150         	0           	Open  	;
 P_114           	J_106           	J_110           	132.729     	12          	150         	0           	Open  	;
 P_115           	J_111           	J_112           	486.579     	4           	150         	0           	Open  	;
 P_116           	J_113           	J_114           	234.789     	12          	150         	0           	Open  	;
 P_117           	J_115           	J_116           	668.34      	6           	150         	0           	Open  	;
 P_118           	J_117           	J_118           	988.619     	6           	150         	0           	Open  	;
 P_119           	J_119           	J_114           	1513.339    	8           	150         	0           	Open  	;
 P_12            	J_21            	J_22            	757.5       	6           	100         	0           	Open  	;
 P_120           	J_120           	J_121           	677.409     	8           	150         	0           	Open  	;
 P_121           	J_122           	J_123           	853.89      	6           	150         	0           	Open  	;
 P_122           	J_124           	J_125           	508.579     	6           	150         	0           	Open  	;
 P_123           	J_126           	J_127           	698.94      	6           	150         	0           	Open  	;
 P_124           	J_128           	J_129           	484.109     	6           	150         	0           	Open  	;
 P_125           	J_130           	J_131           	72.209      	4           	150         	0           	Open  	;
 P_126           	J_129           	J_132           	837.099     	6           	150         	0           	Open  	;
 P_127           	J_133           	J_134           	1120.77     	8           	150         	0           	Open  	;
 P_128           	J_135           	J_136           	463.609     	6           	150         	0           	Open  	;
 P_129           	J_125           	J_129           	346.29      	6           	150         	0           	Open  	;
 P_13            	J_23            	J_24            	608.34      	10          	100         	0           	Open  	;
 P_130           	J_130           	J_137           	353.459     	12          	150         	0           	Open  	;
 P_131           	J_138           	J_139           	303.869     	8           	150         	0           	Open  	;
 P_132           	J_140           	J_77            	485.95      	8           	150         	0           	Open  	;
 P_133           	J_142           	J_143           	179.8       	8           	150         	0           	Open  	;
 P_134           	J_144           	J_140           	797.669     	6           	150         	0           	Open  	;
 P_135           	J_145           	J_146           	326.48      	8           	150         	0           	Open  	;
 P_136           	J_147           	J_148           	415.359     	6           	150         	0           	Open  	;
 P_137           	J_149           	J_150           	666.13      	6           	150         	0           	Open  	;
 P_138           	J_151           	J_130           	83.849      	12          	150         	0           	Open  	;
 P_139           	J_128           	J_132           	364.94      	6           	150         	0           	Open  	;
 P_14            	J_8             	J_25            	556.64      	10          	100         	0           	Open  	;
 P_140           	J_152           	J_48            	11.27       	6           	150         	0           	Open  	;
 P_141           	J_154           	J_148           	435.679     	6           	150         	0           	Open  	;
 P_142           	J_126           	J_155           	700.929     	6           	150         	0           	Open  	;
 P_143           	J_156           	J_119           	684.64      	8           	150         	0           	Open  	;
 P_144           	J_157           	J_158           	426.299     	6           	150         	0           	Open  	;
 P_145           	J_159           	J_144           	215.309     	6           	150         	0           	Open  	;
 P_146           	J_160           	J_36            	5429.319    	8           	150         	0           	Open  	;
 P_147           	J_132           	J_162           	193.46      	6           	150         	0           	Open  	;
 P_148           	J_163           	J_164           	251.97      	8           	150         	0           	Open  	;
 P_149           	J_165           	J_166           	413.809     	12          	150         	0           	Open  	;
 P_15            	J_27            	J_24            	856.2       	6           	100         	0           	Open  	;
 P_150           	J_167           	J_168           	890.869     	12          	150         	0           	Open  	;
 P_151           	R_1             	I_Pump_5        	113.44      	8           	150         	0           	Open  	;
 P_152           	J_133           	J_170           	135.63      	12          	150         	0           	Open  	;
 P_153           	J_164           	J_171           	2162.409    	8           	150         	0           	Open  	;
 P_154           	J_172           	J_124           	341.79      	6           	150         	0           	Open  	;
 P_155           	J_132           	J_173           	334.89      	6           	150         	0           	Open  	;
 P_156           	J_138           	J_174           	237.919     	8           	150         	0           	Open  	;
 P_157           	J_140           	J_175           	505.82      	6           	150         	0           	Open  	;
 P_158           	J_176           	J_140           	453.82      	8           	150         	0           	Open  	;
 P_159           	J_177           	J_106           	1041.979    	4           	150         	0           	Open  	;
 P_16            	J_28            	J_29            	832.039     	6           	100         	0           	Open  	;
 P_160           	J_178           	J_179           	474.829     	12          	150         	0           	Open  	;
 P_161           	J_180           	J_120           	1025.109    	8           	150         	0           	Open  	;
 P_162           	J_181           	J_149           	1664.439    	6           	150         	0           	Open  	;
 P_163           	J_146           	J_138           	660.039     	8           	150         	0           	Open  	;
 P_164           	J_182           	J_183           	659.429     	12          	150         	0           	Open  	;
 P_165           	J_137           	J_122           	991.809     	4           	150         	0           	Open  	;
 P_166           	J_184           	J_185           	1521.589    	8           	150         	0           	Open  	;
 P_167           	J_186           	J_104           	219.38      	6           	150         	0           	Open  	;
 P_168           	J_187           	J_113           	1517.099    	12          	150         	0           	Open  	;
 P_169           	J_188           	J_96            	3.17        	8           	150         	0           	Open  	;
 P_17            	J_30            	J_6             	761.65      	6           	100         	0           	Open  	;
 P_170           	J_156           	J_183           	197.479     	8           	150         	0           	Open  	;
 P_171           	J_124           	J_128           	336.57      	6           	150         	0           	Open  	;
 P_172           	J_183           	J_189           	1534.28     	12          	150         	0           	Open  	;
 P_173           	J_190           	J_135           	1052.219    	6           	150         	0           	Open  	;
 P_174           	J_191           	J_192           	903.09      	6           	150         	0           	Open  	;
 P_175           	J_142           	J_193           	553.52      	6           	150         	0           	Open  	;
 P_176           	J_115           	J_145           	328.5       	8           	150         	0           	Open  	;
 P_177           	J_194           	J_146           	270.769     	8           	150         	0           	Open  	;
 P_178           	J_163           	J_143           	209.6       	12          	150         	0           	Open  	;
 P_179           	J_195           	J_196           	395.149     	2           	150         	0           	Open  	;
 P_18            	J_32            	J_33            	725.58      	6           	100         	0           	Open  	;
 P_180           	J_114           	J_197           	519.789     	12          	150         	0           	Open  	;
 P_181           	J_198           	J_144           	459.149     	6           	150         	0           	Open  	;
 P_182           	J_199           	J_173           	950.679     	6           	150         	0           	Open  	;
 P_183           	J_200           	J_201           	629.01      	6           	150         	0           	Open  	;
 P_184           	J_184           	J_113           	263.29      	12          	150         	0           	Open  	;
 P_185           	J_202           	J_203           	1044.959    	8           	150         	0           	Open  	;
 P_186           	J_204           	J_18            	490.339     	8           	150         	0           	Open  	;
 P_187           	J_206           	J_207           	796.32      	6           	150         	0           	Open  	;
 P_188           	J_208           	J_209           	312.89      	6           	150         	0           	Open  	;
 P_189           	J_199           	J_172           	348.369     	6           	150         	0           	Open  	;
 P_19            	J_34            	J_28            	237         	12          	100         	0           	Open  	;
 P_190           	J_119           	J_182           	198.38      	8           	150         	0           	Open  	;
 P_191           	J_117           	J_104           	737.739     	6           	150         	0           	Open  	;
 P_192           	J_210           	J_136           	969.83      	4           	150         	0           	Open  	;
 P_193           	J_202           	J_135           	441.54      	12          	150         	0           	Open  	;
 P_194           	J_147           	J_199           	2118.09     	6           	150         	0           	Open  	;
 P_195           	J_176           	J_168           	609.799     	4           	150         	0           	Open  	;