[TITLE]


[JUNCTIONS]
;ID              	Elev        	Demand      	Pattern         
 J511            	105.08      	1.175912    	DMA2_pat        	;
 J411            	8.95        	.8890401    	DMA1_pat        	;
 J414            	34.36       	.9658645    	DMA1_pat        	;
 J415            	65          	0           	                	;
 J416            	42.6        	0           	                	;
 J417            	37.38       	1.291233    	DMA1_pat        	;
 J418            	37.39       	0           	                	;
 J419            	40.5        	0           	                	;
 J310            	51.84       	1.357483    	DMA4_pat        	;
 J311            	55.95       	1.18173     	DMA4_pat        	;
 J312            	68.48       	7.558805E-02	DMA4_pat        	;
 J313            	67.66       	.6900545    	DMA4_pat        	;
 J314            	14.94       	1.437699    	DMA1_pat        	;
 J315            	16.03       	1.317467    	DMA1_pat        	;
 J316            	12.98       	.6225603    	DMA1_pat        	;
 J318            	53.67       	1.603255    	DMA4_pat        	;
 J319            	39.29       	1.45241     	DMA4_pat        	;
 J210            	7.01        	9.372806E-02	DMA1_pat        	;
 J211            	11.27       	1.582595    	DMA1_pat        	;
 J212            	7.87        	.6066978    	DMA1_pat        	;
 J214            	8.67        	.8747806    	DMA1_pat        	;
 J217            	10.98       	1.27852     	DMA1_pat        	;
 J218            	7.68        	8.917417E-02	DMA1_pat        	;
 J219            	52          	.9874303    	DMA5_pat        	;
 J110            	15.92       	.781167     	DMA1_pat        	;
 J420            	39.99       	0           	                	;
 J421            	37.09       	1.037828    	DMA1_pat        	;
 J422            	38.81       	0           	                	;
 J1153           	22.14       	.439655     	DMA1_pat        	;
 J1154           	14.61       	.46557      	DMA1_pat        	;
 J1155           	15.54       	1.383003    	DMA1_pat        	;
 J425            	64.42       	0           	                	;
 J426            	72.71       	0           	                	;
 J1157           	22.21       	1.643489    	DMA1_pat        	;
 J427            	67.65       	0           	                	;
 J1158           	28.25       	.37811      	DMA1_pat        	;
 J428            	16.2        	1.158526    	DMA1_pat        	;
 J429            	12.56       	1.633339    	DMA1_pat        	;
 J320            	46.73       	.4065523    	DMA4_pat        	;
 J321            	44.59       	.8897884    	DMA4_pat        	;
 J322            	48.02       	.1772828    	DMA4_pat        	;
 J324            	42.38       	1.665691    	DMA4_pat        	;
 J1056           	7.64        	1.12696     	DMA1_pat        	;
 J327            	49.68       	2.617306E-02	DMA4_pat        	;
 J1058           	13.58       	.9586397    	DMA1_pat        	;
 J328            	45.69       	.1667536    	DMA4_pat        	;
 J329            	44.05       	.1717045    	DMA4_pat        	;
 J220            	80          	1.331474    	DMA5_pat        	;
 J221            	97.07       	.4741339    	DMA4_pat        	;
 J225            	13.33       	7.608195E-02	DMA1_pat        	;
 J226            	11.1        	.4929547    	DMA1_pat        	;
 J50             	71.8        	.6366845    	DMA4_pat        	;
 J51             	77.42       	.5016175    	DMA4_pat        	;
 J53             	85          	1.580952    	DMA5_pat        	;
 J54             	80          	1.633049    	DMA5_pat        	;
 J128            	85.26       	.6689573    	DMA2_pat        	;
 J55             	71          	.4638       	DMA5_pat        	;
 J129            	62.85       	.2674025    	DMA2_pat        	;
 J56             	72          	.2713695    	DMA5_pat        	;
 J57             	59          	1.077645    	DMA5_pat        	;
 J58             	76          	.6834553    	DMA5_pat        	;
 J59             	57          	.6879447    	DMA5_pat        	;
 J1160           	24.91       	1.187884    	DMA1_pat        	;
 J1161           	25.25       	.543677     	DMA1_pat        	;
 J431            	16.9        	1.055298    	DMA1_pat        	;
 J432            	19.88       	.3459353    	DMA1_pat        	;
 J433            	27.35       	.3100225    	DMA1_pat        	;
 J434            	16.48       	.9722651    	DMA1_pat        	;
 J435            	12.15       	.1345244    	DMA1_pat        	;
 J436            	17.68       	.7632859    	DMA1_pat        	;
 J438            	10.43       	1.50955     	DMA1_pat        	;
 J1169           	55.42       	.4356139    	DMA3_pat        	;
 J439            	17.78       	1.308687    	DMA1_pat        	;
 J330            	58.25       	.6315042    	DMA4_pat        	;
 J331            	59.26       	.482775     	DMA4_pat        	;
 J332            	44.18       	1.324       	DMA1_pat        	;
 J333            	25.7        	1.052904    	DMA1_pat        	;
 J334            	29.28       	1.04607     	DMA1_pat        	;
 J335            	25.08       	.7140939    	DMA1_pat        	;
 J336            	23.81       	.1632897    	DMA1_pat        	;
 J337            	22.11       	.935067     	DMA1_pat        	;
 J231            	71.9        	1.157476    	DMA4_pat        	;
 J232            	69.81       	1.522863    	DMA4_pat        	;
 J233            	74.23       	0           	                	;
 J234            	64.06       	.03         	DMA2_pat        	;
 J236            	58          	.9056011    	DMA5_pat        	;
 J237            	73.14       	1.52694     	DMA5_pat        	;
 J130            	54.52       	.717102     	DMA2_pat        	;
 J131            	88.05       	1.129913    	DMA2_pat        	;
 J132            	74.55       	.8374234    	DMA2_pat        	;
 J133            	69.58       	.8562292    	DMA2_pat        	;
 J60             	55          	.7716334    	DMA5_pat        	;
 J134            	80.7        	.5891212    	DMA2_pat        	;
 J135            	70          	.6747236    	DMA2_pat        	;
 J62             	60          	.4495525    	DMA5_pat        	;
 J64             	82          	9.265584E-02	DMA5_pat        	;
 J65             	82          	.4064086    	DMA5_pat        	;
 J66             	72          	1.631797    	DMA5_pat        	;
 J67             	81          	.1015269    	DMA5_pat        	;
 J68             	73          	.6504859    	DMA5_pat        	;
 J69             	71          	.6083255    	DMA5_pat        	;
 J1170           	54.54       	.8164911    	DMA3_pat        	;
 J441            	69          	0           	                	;
 J444            	29.46       	.7907653    	DMA1_pat        	;
 J341            	14.89       	.4287795    	DMA1_pat        	;
 J344            	54.7        	1.04792     	DMA3_pat        	;
 J345            	49.97       	.9034503    	DMA3_pat        	;
 J347            	54.4        	.2605036    	DMA3_pat        	;
 J348            	62.18       	1.564242    	DMA4_pat        	;
 J349            	36.41       	1.090832    	DMA4_pat        	;
 J241            	70          	.8434789    	DMA5_pat        	;
 J242            	65          	.6507859    	DMA5_pat        	;
 J243            	60          	.1789589    	DMA5_pat        	;
 J244            	70          	1.306659    	DMA5_pat        	;
 J245            	71          	.7660681    	DMA5_pat        	;
 J246            	55          	1.256147    	DMA5_pat        	;
 J247            	57          	.9934909    	DMA5_pat        	;
 J248            	54          	1.387884    	DMA5_pat        	;
 J249            	50          	3.126389E-02	DMA5_pat        	;
 J142            	5.53        	.3506145    	DMA1_pat        	;
 J143            	6.3         	.1232556    	DMA1_pat        	;
 J70             	70          	.1757545    	DMA5_pat        	;
 J144            	4.17        	.5528242    	DMA1_pat        	;
 J71             	77          	.2137497    	DMA5_pat        	;
 J72             	75          	4.019444E-04	DMA5_pat        	;
 J73             	80          	.8946567    	DMA5_pat        	;
 J74             	75          	1.095092    	DMA5_pat        	;
 J76             	70          	.9066901    	DMA5_pat        	;
 J77             	76          	1.37902     	DMA5_pat        	;
 J78             	60.56       	.1364892    	DMA4_pat        	;
 J350            	33.82       	.3198709    	DMA3_pat        	;
 J351            	25.51       	1.131522    	DMA4_pat        	;
 J352            	47.55       	.7570131    	DMA4_pat        	;
 J353            	22.64       	.5950387    	DMA4_pat        	;
 J354            	18.68       	.2499683    	DMA4_pat        	;
 J355            	28.87       	1.173993    	DMA4_pat        	;
 J358            	22.3        	1.547977    	DMA4_pat        	;
 J359            	17.57       	.8836875    	DMA4_pat        	;
 J250            	67          	.1494022    	DMA5_pat        	;
 J251            	75.19       	1.262882    	DMA2_pat        	;
 J252            	83.82       	.6697367    	DMA2_pat        	;
 J253            	74.69       	.7697906    	DMA2_pat        	;
 J254            	74.59       	.8202762    	DMA2_pat        	;
 J257            	105.58      	.3460456    	DMA2_pat        	;
 J154            	43.69       	.54956      	DMA1_pat        	;
 J155            	44.41       	.1590483    	DMA1_pat        	;
 J82             	70.87       	.9829875    	DMA4_pat        	;
 J156            	56.16       	.2831225    	DMA1_pat        	;
 J83             	61.07       	1.546028    	DMA4_pat        	;
 J84             	43.82       	.1632164    	DMA5_pat        	;
 J85             	45          	.7397709    	DMA5_pat        	;
 J159            	37.41       	.4549114    	DMA1_pat        	;
 J86             	50          	1.454245    	DMA5_pat        	;
 J87             	42.63       	1.251146    	DMA5_pat        	;
 J89             	68.29       	.4549039    	DMA2_pat        	;
 J360            	20.71       	1.122745    	DMA4_pat        	;
 J361            	26.67       	.427715     	DMA4_pat        	;
 J362            	43.66       	.1498275    	DMA4_pat        	;
 J363            	72.23       	0           	                	;
 J364            	65          	0           	                	;
 J365            	29.83       	1.316882    	DMA1_pat        	;
 J366            	14.46       	.49543      	DMA1_pat        	;
 J1208           	42.74       	.392137     	DMA4_pat        	;
 J367            	13.6        	.8007911    	DMA1_pat        	;
 J369            	20.27       	.4243364    	DMA1_pat        	;
 J160            	43.69       	.5676775    	DMA1_pat        	;
 J161            	22.81       	7.488973E-02	DMA1_pat        	;
 J162            	36.88       	.8040467    	DMA1_pat        	;
 J163            	16.2        	.343362     	DMA1_pat        	;
 J164            	17.34       	1.440891    	DMA1_pat        	;
 J91             	64.09       	.9810478    	DMA2_pat        	;
 J165            	16.69       	1.258181    	DMA1_pat        	;
 J166            	23.95       	1.546472    	DMA1_pat        	;
 J167            	23.91       	.5516948    	DMA1_pat        	;
 J94             	30.75       	.904902     	DMA3_pat        	;
 J95             	22.56       	.1344856    	DMA1_pat        	;
 J96             	30          	1.057287    	DMA1_pat        	;
 J97             	34.19       	.6833945    	DMA1_pat        	;
 J976            	6.3         	1.600705    	DMA1_pat        	;
 J571            	77.11       	.1910389    	DMA2_pat        	;
 J572            	76.4        	1.539075    	DMA2_pat        	;
 J573            	81.62       	1.033683    	DMA2_pat        	;
 J574            	67.36       	.5795442    	DMA2_pat        	;
 J575            	75.27       	.2487428    	DMA2_pat        	;
 J576            	80.8        	.7999637    	DMA2_pat        	;
 J370            	20.46       	.365682     	DMA1_pat        	;
 J371            	68.81       	0           	                	;
 J372            	23.2        	.2173675    	DMA1_pat        	;
 J373            	27.22       	4.814306E-02	DMA1_pat        	;
 J374            	13.7        	.5756528    	DMA1_pat        	;
 J375            	22.72       	.9127809    	DMA1_pat        	;
 J376            	12.18       	1.538258    	DMA1_pat        	;
 J377            	13.12       	.8970772    	DMA1_pat        	;
 J1219           	14.48       	.6773689    	DMA1_pat        	;
 J379            	10.25       	1.412076    	DMA1_pat        	;
 J171            	8.81        	1.377043    	DMA1_pat        	;
 J172            	6.25        	1.120713    	DMA1_pat        	;
 J173            	13          	1.203158    	DMA1_pat        	;
 J174            	6.11        	1.661286    	DMA1_pat        	;
 J175            	6.84        	.5663434    	DMA1_pat        	;
 J177            	13.14       	.8253523    	DMA1_pat        	;
 J179            	15.01       	.6882797    	DMA1_pat        	;
 J580            	113.08      	1.158803    	DMA2_pat        	;
 J486            	86.11       	.2984822    	DMA2_pat        	;
 J487            	79          	.7048636    	DMA2_pat        	;
 J488            	89.16       	.9052951    	DMA2_pat        	;
 J489            	85.02       	1.357773    	DMA2_pat        	;
 J381            	36.02       	.9015225    	DMA4_pat        	;
 J1223           	3.48        	.7125556    	DMA1_pat        	;
 J382            	70.42       	.848447     	DMA4_pat        	;
 J384            	42.51       	0           	                	;
 J385            	76.6        	0           	                	;
 J180            	8.77        	.816384     	DMA1_pat        	;
 J181            	10.94       	1.134699    	DMA1_pat        	;
 J1024           	5.83        	1.477667    	DMA1_pat        	;
 J183            	13.28       	.6175256    	DMA1_pat        	;
 J1025           	8.61        	.5041625    	DMA1_pat        	;
 J186            	9.38        	.4881114    	DMA1_pat        	;
 J187            	9.81        	.2505189    	DMA1_pat        	;
 J188            	8.51        	.8830353    	DMA1_pat        	;
 J189            	7.58        	.3721031    	DMA1_pat        	;
 J490            	103.84      	.9742156    	DMA2_pat        	;
 J491            	76.93       	.6057645    	DMA2_pat        	;
 J492            	94.67       	1.459958    	DMA2_pat        	;
 J493            	77.62       	.7966903    	DMA2_pat        	;
 J494            	112.76      	.3177222    	DMA2_pat        	;
 J495            	91.15       	1.140104    	DMA2_pat        	;
 J496            	106.34      	1.245693    	DMA2_pat        	;
 J497            	112.63      	1.023225    	DMA2_pat        	;
 J498            	90.12       	1.303565    	DMA2_pat        	;
 J500            	75.52       	.2695728    	DMA2_pat        	;
 J499            	72.24       	1.3463      	DMA2_pat        	;
 J501            	80.97       	.3376972    	DMA2_pat        	;
 J502            	80.99       	1.594604    	DMA2_pat        	;
 J503            	99.65       	.1097517    	DMA2_pat        	;
 J504            	66.71       	.1025369    	DMA2_pat        	;
 J394            	70.53       	0           	                	;
 J509            	99.94       	.6326745    	DMA2_pat        	;
 J399            	75          	0           	                	;
 J401            	70          	0           	                	;
 J406            	71.74       	0           	                	;
 J295            	56.42       	.2896222    	DMA4_pat        	;
 J407            	68          	0           	                	;
 J296            	30.91       	1.191361    	DMA4_pat        	;
 J408            	7.93        	.8883706    	DMA1_pat        	;
 J297            	99.05       	.9350156    	DMA4_pat        	;
 J298            	77.46       	.3612225    	DMA4_pat        	;
 J191            	5.76        	.7800094    	DMA1_pat        	;
 J303            	50.42       	1.243924    	DMA4_pat        	;
 J192            	12.4        	1.253851    	DMA1_pat        	;
 J193            	12.99       	.6648872    	DMA1_pat        	;
 J305            	47.11       	1.505165    	DMA4_pat        	;
 J194            	13.46       	1.243345    	DMA1_pat        	;
 J195            	15.39       	.1475992    	DMA1_pat        	;
 J196            	13.35       	1.057619    	DMA1_pat        	;
 J308            	33.24       	1.18838     	DMA1_pat        	;
 J198            	18.54       	2.613722E-02	DMA1_pat        	;
 J200            	15.75       	.7185739    	DMA1_pat        	;
 J199            	16.26       	.6699712    	DMA1_pat        	;
 J201            	44.86       	.4588259    	DMA1_pat        	;
 J202            	10.41       	1.64229     	DMA1_pat        	;
 J203            	11.03       	1.337646    	DMA1_pat        	;
 J204            	21.51       	1.160168    	DMA1_pat        	;
 J205            	16.66       	.6959986    	DMA1_pat        	;
 J206            	14.12       	1.224147    	DMA1_pat        	;
 J207            	18.86       	.4619472    	DMA1_pat        	;
 J208            	11.25       	.5943106    	DMA1_pat        	;
 J101            	28.65       	.7224287    	DMA1_pat        	;
 J102            	46.96       	1.574952    	DMA1_pat        	;
 J109            	17.47       	.2025833    	DMA1_pat        	;
 J1              	16.82       	1.076586    	DMA1_pat        	;
 J2              	11.97       	.5797212    	DMA1_pat        	;
 J3              	29.02       	.1740539    	DMA1_pat        	;
 J4              	20.88       	.3090042    	DMA1_pat        	;
 J5              	22.75       	.1294744    	DMA1_pat        	;
 J6              	15.25       	.7212659    	DMA1_pat        	;
 J7              	24.91       	1.598785    	DMA1_pat        	;
 J8              	31.17       	.9033823    	DMA1_pat        	;
 J9              	31.89       	.8239611    	DMA1_pat        	;
 J10             	14.62       	1.621611    	DMA1_pat        	;
 J11             	18.43       	.3629998    	DMA1_pat        	;
 J12             	29.27       	.631652     	DMA1_pat        	;
 J13             	32.04       	.6597406    	DMA1_pat        	;
 J14             	37.91       	0           	                	;
 J15             	102.84      	0           	                	;
 J16             	88.89       	0           	                	;
 J17             	82.75       	0           	                	;
 J18             	84.96       	0           	                	;
 J19             	90.94       	0           	                	;
 J20             	80          	0           	                	;
 J21             	80          	0           	                	;
 J22             	82.74       	0           	                	;
 J23             	75.96       	0           	                	;
 J25             	94.13       	.1074853    	DMA2_pat        	;
 J26             	76.35       	1.260154    	DMA2_pat        	;
 J27             	82.08       	1.167524    	DMA2_pat        	;
 J28             	45          	.8284517    	DMA2_pat        	;
 J29             	49          	.2590595    	DMA2_pat        	;
 J30             	72.01       	.3728958    	DMA2_pat        	;
 J31             	69.78       	.5435734    	DMA2_pat        	;
 J32             	45          	1.307481    	DMA2_pat        	;
 J33             	48          	8.377139E-02	DMA2_pat        	;
 J34             	50          	.86336      	DMA2_pat        	;
 J35             	67.78       	1.261716    	DMA2_pat        	;
 J36             	51.08       	1.33445     	DMA2_pat        	;
 J37             	66.19       	.5420092    	DMA2_pat        	;
 J38             	47          	1.621215    	DMA2_pat        	;
 J24             	34.53       	1.340445    	DMA1_pat        	;
 J39             	45.88       	1.12471     	DMA1_pat        	;
 J40             	12.8        	1.508549    	DMA1_pat        	;
 J123            	38.41       	1.459633    	DMA3_pat        	;
 J140            	39.94       	.694414     	DMA3_pat        	;
 J141            	41.45       	.2051381    	DMA3_pat        	;
 J157            	31.49       	1.590263    	DMA3_pat        	;
 J158            	25.88       	1.328829    	DMA3_pat        	;
 J168            	40.21       	1.160475    	DMA3_pat        	;
 J170            	46.87       	.6693408    	DMA3_pat        	;
 J176            	50.64       	2.716278E-02	DMA3_pat        	;
 J178            	58.87       	.2796047    	DMA3_pat        	;
 J184            	56.09       	.2737236    	DMA3_pat        	;
 J185            	43.71       	.8495334    	DMA3_pat        	;
 J190            	58.49       	.6767712    	DMA3_pat        	;
 J197            	41.86       	.1768897    	DMA3_pat        	;
 J213            	52.07       	.4602056    	DMA3_pat        	;
 J215            	75.76       	1.071745    	DMA3_pat        	;
 J216            	53.06       	1.415167    	DMA3_pat        	;
 J227            	52.89       	.8299486    	DMA3_pat        	;
 J238            	44.16       	.3129586    	DMA3_pat        	;
 J239            	43.49       	1.494361    	DMA3_pat        	;
 J255            	35.31       	.6213573    	DMA3_pat        	;
 J256            	40          	0           	                	;
 J258            	51.24       	1.284721    	DMA3_pat        	;
 J260            	32.53       	.3633339    	DMA3_pat        	;
 J265            	50.87       	.7449886    	DMA3_pat        	;
 J266            	39.83       	.3933797    	DMA3_pat        	;
 J267            	22.31       	1.463974    	DMA4_pat        	;
 J61             	72          	1.017388    	DMA5_pat        	;
 J92             	72          	.6240537    	DMA5_pat        	;
 J268            	69.68       	.6491698    	DMA4_pat        	;
 J278            	104.29      	1.434316    	DMA2_pat        	;
 J281            	83.72       	.9765631    	DMA2_pat        	;
 J283            	94.06       	1.552599    	DMA2_pat        	;
 J284            	77.38       	.8619875    	DMA2_pat        	;
 J136            	81.8        	.5505014    	DMA2_pat        	;
 J137            	9.11        	1.447423    	DMA1_pat        	;
 J145            	47.46       	.4317684    	DMA3_pat        	;
 J118            	75          	.4325689    	DMA5_pat        	;
 J52             	54.7        	.2978225    	DMA4_pat        	;
 J81             	50          	.578262     	DMA2_pat        	;
 J88             	45          	4.176111E-03	DMA2_pat        	;
 J90             	84          	1.237237    	DMA2_pat        	;
 J93             	65          	4.204435    	DMA2_pat        	;
 J147            	68          	.4643159    	DMA2_pat        	;
 J148            	50          	1.171617    	DMA2_pat        	;
 J149            	40          	.6747745    	DMA2_pat        	;
 J150            	60          	1.352619    	DMA2_pat        	;
 J151            	60          	1.236301    	DMA2_pat        	;
 J152            	32          	.7294397    	DMA2_pat        	;
 J153            	60          	.1299675    	DMA2_pat        	;
 J169            	42          	.6843861    	DMA2_pat        	;
 J182            	40          	.5656253    	DMA2_pat        	;
 J222            	32          	1.184257    	DMA2_pat        	;
 J224            	37          	.5204803    	DMA2_pat        	;
 J230            	30          	1.331289    	DMA4_pat        	;
 J235            	53          	.2529269    	DMA4_pat        	;
 J240            	87          	.9883186    	DMA2_pat        	;
 J269            	56          	0           	                	;
 J273            	56          	0           	                	;
 J274            	56          	0           	                	;
 J276            	56          	0           	                	;
 J280            	56          	0           	                	;
 J285            	56          	0           	                	;
 J287            	40          	0           	                	;
 J288            	40          	0           	                	;
 J289            	40          	0           	                	;
 J290            	40          	0           	                	;
 J291            	65          	0           	                	;
 J292            	40          	0           	                	;
 J299            	40          	0           	                	;
 J300            	40          	0           	                	;
 J301            	44          	0           	                	;
 J302            	44          	0           	                	;
 J304            	44          	0           	                	;
 J306            	44          	0           	                	;
 J307            	44          	0           	                	;
 J309            	44          	0           	                	;
 J317            	44          	0           	                	;
 J323            	44          	0           	                	;

[RESERVOIRS]
;ID              	Head        	Pattern         
 R1              	59          	                	;

[TANKS]
;ID              	Elevation   	InitLevel   	MinLevel    	MaxLevel    	Diameter    	MinVol      	VolCurve
 T1              	71.5        	3           	0           	6.5         	31.3        	0           	                	;
 T2              	65          	.5          	0           	5.9         	20.78       	0           	                	;
 T3              	112.9       	3           	0           	6.75        	13.73       	0           	                	;
 T4              	132.5       	2.5         	0           	4.7         	11.64       	0           	                	;
 T5              	105.8       	1.0         	0           	4.5         	11.89       	0           	                	;
 T6              	101.5       	5.2         	0           	5.5         	8.33        	0           	                	;
 T7              	102         	2.5         	0           	5           	7.14        	0           	                	;

[PIPES]
;ID              	Node1           	Node2           	Length      	Diameter    	Roughness   	MinorLoss   	Status
 P1              	J175            	J174            	52.9        	203         	72.4549266  	0           	Open  	;
 P10             	J335            	J336            	79.23       	76          	108.0095074 	0           	Open  	;
 P100            	J159            	J160            	107.88      	406         	76.51422883 	0           	Open  	;
 P1000           	J341            	J204            	109.27      	203         	76.94614787 	0           	Open  	;
 P101            	J166            	J162            	243.37      	254         	84.20845169 	0           	Open  	;
 P1016           	J22             	J233            	164.77      	305         	85.23817366 	0           	Open  	;
 P102            	J109            	J408            	1280.3      	508         	92.94722922 	0           	Open  	;
 P1022           	J281            	J283            	200.76      	102         	99.58078005 	0           	Open  	;
 P1023           	J278            	J283            	136.34      	102         	95.68850653 	0           	Open  	;
 P1024           	J580            	J278            	375.62      	102         	89.62069894 	0           	Open  	;
 P1025           	J575            	J132            	39.18       	76          	97.77659267 	0           	Open  	;
 P1026           	J132            	J493            	45.61       	76          	88.45039526 	0           	Open  	;
 P1027           	J486            	J488            	82.32       	51          	92.0106009  	0           	Open  	;
 P1028           	J489            	J486            	9.57        	51          	86.99339612 	0           	Open  	;
 P1029           	J489            	J492            	122.62      	76          	91.33959845 	0           	Open  	;
 P103            	J2              	J1219           	35.98       	254         	79.37099717 	0           	Open  	;
 P1030           	J493            	J489            	95.25       	76          	104.6083303 	0           	Open  	;
 P1031           	J494            	J490            	188.28      	152         	84.37414232 	0           	Open  	;
 P1032           	J490            	J492            	143.29      	152         	98.43095137 	0           	Open  	;
 P1033           	J492            	J131            	128.79      	152         	84.68939593 	0           	Open  	;
 P1034           	J254            	J253            	52.87       	203         	97.41854735 	0           	Open  	;
 P1035           	J253            	J128            	122.47      	152         	97.7581413  	0           	Open  	;
 P1036           	J131            	J128            	83.33       	203         	74.29791874 	0           	Open  	;
 P1039           	J573            	J128            	121.38      	203         	92.14229573 	0           	Open  	;
 P104            	J166            	J167            	33.11       	203         	99.88658284 	0           	Open  	;
 P1040           	J136            	J573            	29.45       	152         	94.68876721 	0           	Open  	;
 P1041           	J136            	J129            	307.54      	102         	112.5081558 	0           	Open  	;
 P1042           	J89             	J573            	84.54       	152         	76.15024112 	0           	Open  	;
 P1044           	T5              	J64             	65.8        	203         	100.2182444 	0           	Open  	;
 P1045           	J64             	J53             	68.63       	203         	118.82139   	0           	Open  	;
 P106            	J102            	J101            	270.38      	102         	63.55113264 	0           	Open  	;
 P107            	J171            	J172            	357         	203         	80.50983232 	0           	Open  	;
 P108            	J101            	J109            	183.53      	203         	78.72048108 	0           	Open  	;
 P109            	J175            	J172            	218.52      	203         	76.89340854 	0           	Open  	;
 P11             	J318            	J235            	83.45       	101.6       	96.83442437 	0           	Open  	;
 P110            	J179            	J177            	425.83      	508         	98.99414116 	0           	Open  	;
 P111            	J976            	J143            	126.36      	152         	72.41174834 	0           	Open  	;
 P112            	J142            	J976            	646.98      	305         	68.60087459 	0           	Open  	;